* NGSPICE file created from core.ext - technology: sky130A

* Black-box entry subcircuit for sky130_fd_sc_hd__decap_6 abstract view
.subckt sky130_fd_sc_hd__decap_6 VGND VNB VPB VPWR
.ends

* Black-box entry subcircuit for sky130_fd_sc_hd__and2_1 abstract view
.subckt sky130_fd_sc_hd__and2_1 A B VGND VNB VPB VPWR X
.ends

* Black-box entry subcircuit for sky130_fd_sc_hd__and2b_1 abstract view
.subckt sky130_fd_sc_hd__and2b_1 A_N B VGND VNB VPB VPWR X
.ends

* Black-box entry subcircuit for sky130_ef_sc_hd__decap_12 abstract view
.subckt sky130_ef_sc_hd__decap_12 VGND VNB VPB VPWR
.ends

* Black-box entry subcircuit for sky130_fd_sc_hd__fill_1 abstract view
.subckt sky130_fd_sc_hd__fill_1 VGND VNB VPB VPWR
.ends

* Black-box entry subcircuit for sky130_fd_sc_hd__mux2_2 abstract view
.subckt sky130_fd_sc_hd__mux2_2 A0 A1 S VGND VNB VPB VPWR X
.ends

* Black-box entry subcircuit for sky130_fd_sc_hd__a211o_1 abstract view
.subckt sky130_fd_sc_hd__a211o_1 A1 A2 B1 C1 VGND VNB VPB VPWR X
.ends

* Black-box entry subcircuit for sky130_fd_sc_hd__clkbuf_1 abstract view
.subckt sky130_fd_sc_hd__clkbuf_1 A VGND VNB VPB VPWR X
.ends

* Black-box entry subcircuit for sky130_fd_sc_hd__decap_3 abstract view
.subckt sky130_fd_sc_hd__decap_3 VGND VNB VPB VPWR
.ends

* Black-box entry subcircuit for sky130_fd_sc_hd__decap_8 abstract view
.subckt sky130_fd_sc_hd__decap_8 VGND VNB VPB VPWR
.ends

* Black-box entry subcircuit for sky130_fd_sc_hd__fill_2 abstract view
.subckt sky130_fd_sc_hd__fill_2 VGND VNB VPB VPWR
.ends

* Black-box entry subcircuit for sky130_fd_sc_hd__dfrtp_1 abstract view
.subckt sky130_fd_sc_hd__dfrtp_1 CLK D RESET_B VGND VNB VPB VPWR Q
.ends

* Black-box entry subcircuit for sky130_fd_sc_hd__dfrtp_4 abstract view
.subckt sky130_fd_sc_hd__dfrtp_4 CLK D RESET_B VGND VNB VPB VPWR Q
.ends

* Black-box entry subcircuit for sky130_fd_sc_hd__nor2_1 abstract view
.subckt sky130_fd_sc_hd__nor2_1 A B VGND VNB VPB VPWR Y
.ends

* Black-box entry subcircuit for sky130_fd_sc_hd__o32a_1 abstract view
.subckt sky130_fd_sc_hd__o32a_1 A1 A2 A3 B1 B2 VGND VNB VPB VPWR X
.ends

* Black-box entry subcircuit for sky130_fd_sc_hd__nand2_1 abstract view
.subckt sky130_fd_sc_hd__nand2_1 A B VGND VNB VPB VPWR Y
.ends

* Black-box entry subcircuit for sky130_fd_sc_hd__or4_1 abstract view
.subckt sky130_fd_sc_hd__or4_1 A B C D VGND VNB VPB VPWR X
.ends

* Black-box entry subcircuit for sky130_fd_sc_hd__a21o_1 abstract view
.subckt sky130_fd_sc_hd__a21o_1 A1 A2 B1 VGND VNB VPB VPWR X
.ends

* Black-box entry subcircuit for sky130_fd_sc_hd__a21oi_4 abstract view
.subckt sky130_fd_sc_hd__a21oi_4 A1 A2 B1 VGND VNB VPB VPWR Y
.ends

* Black-box entry subcircuit for sky130_fd_sc_hd__and3_1 abstract view
.subckt sky130_fd_sc_hd__and3_1 A B C VGND VNB VPB VPWR X
.ends

* Black-box entry subcircuit for sky130_fd_sc_hd__mux2_1 abstract view
.subckt sky130_fd_sc_hd__mux2_1 A0 A1 S VGND VNB VPB VPWR X
.ends

* Black-box entry subcircuit for sky130_fd_sc_hd__a31oi_1 abstract view
.subckt sky130_fd_sc_hd__a31oi_1 A1 A2 A3 B1 VGND VNB VPB VPWR Y
.ends

* Black-box entry subcircuit for sky130_fd_sc_hd__tapvpwrvgnd_1 abstract view
.subckt sky130_fd_sc_hd__tapvpwrvgnd_1 VGND VPWR
.ends

* Black-box entry subcircuit for sky130_fd_sc_hd__decap_4 abstract view
.subckt sky130_fd_sc_hd__decap_4 VGND VNB VPB VPWR
.ends

* Black-box entry subcircuit for sky130_fd_sc_hd__o31ai_4 abstract view
.subckt sky130_fd_sc_hd__o31ai_4 A1 A2 A3 B1 VGND VNB VPB VPWR Y
.ends

* Black-box entry subcircuit for sky130_fd_sc_hd__or4b_1 abstract view
.subckt sky130_fd_sc_hd__or4b_1 A B C D_N VGND VNB VPB VPWR X
.ends

* Black-box entry subcircuit for sky130_fd_sc_hd__buf_12 abstract view
.subckt sky130_fd_sc_hd__buf_12 A VGND VNB VPB VPWR X
.ends

* Black-box entry subcircuit for sky130_fd_sc_hd__or3_1 abstract view
.subckt sky130_fd_sc_hd__or3_1 A B C VGND VNB VPB VPWR X
.ends

* Black-box entry subcircuit for sky130_fd_sc_hd__a21oi_1 abstract view
.subckt sky130_fd_sc_hd__a21oi_1 A1 A2 B1 VGND VNB VPB VPWR Y
.ends

* Black-box entry subcircuit for sky130_fd_sc_hd__a221o_1 abstract view
.subckt sky130_fd_sc_hd__a221o_1 A1 A2 B1 B2 C1 VGND VNB VPB VPWR X
.ends

* Black-box entry subcircuit for sky130_fd_sc_hd__or2b_1 abstract view
.subckt sky130_fd_sc_hd__or2b_1 A B_N VGND VNB VPB VPWR X
.ends

* Black-box entry subcircuit for sky130_fd_sc_hd__clkbuf_4 abstract view
.subckt sky130_fd_sc_hd__clkbuf_4 A VGND VNB VPB VPWR X
.ends

* Black-box entry subcircuit for sky130_fd_sc_hd__buf_2 abstract view
.subckt sky130_fd_sc_hd__buf_2 A VGND VNB VPB VPWR X
.ends

* Black-box entry subcircuit for sky130_fd_sc_hd__dfxtp_1 abstract view
.subckt sky130_fd_sc_hd__dfxtp_1 CLK D VGND VNB VPB VPWR Q
.ends

* Black-box entry subcircuit for sky130_fd_sc_hd__and4_1 abstract view
.subckt sky130_fd_sc_hd__and4_1 A B C D VGND VNB VPB VPWR X
.ends

* Black-box entry subcircuit for sky130_fd_sc_hd__nor2_2 abstract view
.subckt sky130_fd_sc_hd__nor2_2 A B VGND VNB VPB VPWR Y
.ends

* Black-box entry subcircuit for sky130_fd_sc_hd__xnor2_2 abstract view
.subckt sky130_fd_sc_hd__xnor2_2 A B VGND VNB VPB VPWR Y
.ends

* Black-box entry subcircuit for sky130_fd_sc_hd__clkdlybuf4s25_1 abstract view
.subckt sky130_fd_sc_hd__clkdlybuf4s25_1 A VGND VNB VPB VPWR X
.ends

* Black-box entry subcircuit for sky130_fd_sc_hd__conb_1 abstract view
.subckt sky130_fd_sc_hd__conb_1 VGND VNB VPB VPWR HI LO
.ends

* Black-box entry subcircuit for sky130_fd_sc_hd__diode_2 abstract view
.subckt sky130_fd_sc_hd__diode_2 DIODE VGND VNB VPB VPWR
.ends

* Black-box entry subcircuit for sky130_fd_sc_hd__a2bb2o_1 abstract view
.subckt sky130_fd_sc_hd__a2bb2o_1 A1_N A2_N B1 B2 VGND VNB VPB VPWR X
.ends

* Black-box entry subcircuit for sky130_fd_sc_hd__o211a_1 abstract view
.subckt sky130_fd_sc_hd__o211a_1 A1 A2 B1 C1 VGND VNB VPB VPWR X
.ends

* Black-box entry subcircuit for sky130_fd_sc_hd__o31a_1 abstract view
.subckt sky130_fd_sc_hd__o31a_1 A1 A2 A3 B1 VGND VNB VPB VPWR X
.ends

* Black-box entry subcircuit for sky130_fd_sc_hd__buf_8 abstract view
.subckt sky130_fd_sc_hd__buf_8 A VGND VNB VPB VPWR X
.ends

* Black-box entry subcircuit for sky130_fd_sc_hd__o31a_2 abstract view
.subckt sky130_fd_sc_hd__o31a_2 A1 A2 A3 B1 VGND VNB VPB VPWR X
.ends

* Black-box entry subcircuit for sky130_fd_sc_hd__or2_1 abstract view
.subckt sky130_fd_sc_hd__or2_1 A B VGND VNB VPB VPWR X
.ends

* Black-box entry subcircuit for sky130_fd_sc_hd__inv_1 abstract view
.subckt sky130_fd_sc_hd__inv_1 A VGND VNB VPB VPWR Y
.ends

* Black-box entry subcircuit for sky130_fd_sc_hd__o2111a_1 abstract view
.subckt sky130_fd_sc_hd__o2111a_1 A1 A2 B1 C1 D1 VGND VNB VPB VPWR X
.ends

* Black-box entry subcircuit for sky130_fd_sc_hd__inv_2 abstract view
.subckt sky130_fd_sc_hd__inv_2 A VGND VNB VPB VPWR Y
.ends

* Black-box entry subcircuit for sky130_fd_sc_hd__nand2_4 abstract view
.subckt sky130_fd_sc_hd__nand2_4 A B VGND VNB VPB VPWR Y
.ends

* Black-box entry subcircuit for sky130_fd_sc_hd__o221a_1 abstract view
.subckt sky130_fd_sc_hd__o221a_1 A1 A2 B1 B2 C1 VGND VNB VPB VPWR X
.ends

* Black-box entry subcircuit for sky130_fd_sc_hd__nand3_1 abstract view
.subckt sky130_fd_sc_hd__nand3_1 A B C VGND VNB VPB VPWR Y
.ends

* Black-box entry subcircuit for sky130_fd_sc_hd__clkbuf_16 abstract view
.subckt sky130_fd_sc_hd__clkbuf_16 A VGND VNB VPB VPWR X
.ends

* Black-box entry subcircuit for sky130_fd_sc_hd__buf_4 abstract view
.subckt sky130_fd_sc_hd__buf_4 A VGND VNB VPB VPWR X
.ends

* Black-box entry subcircuit for sky130_fd_sc_hd__o22a_1 abstract view
.subckt sky130_fd_sc_hd__o22a_1 A1 A2 B1 B2 VGND VNB VPB VPWR X
.ends

* Black-box entry subcircuit for sky130_fd_sc_hd__o311a_1 abstract view
.subckt sky130_fd_sc_hd__o311a_1 A1 A2 A3 B1 C1 VGND VNB VPB VPWR X
.ends

* Black-box entry subcircuit for sky130_fd_sc_hd__a22o_1 abstract view
.subckt sky130_fd_sc_hd__a22o_1 A1 A2 B1 B2 VGND VNB VPB VPWR X
.ends

* Black-box entry subcircuit for sky130_fd_sc_hd__o21a_2 abstract view
.subckt sky130_fd_sc_hd__o21a_2 A1 A2 B1 VGND VNB VPB VPWR X
.ends

* Black-box entry subcircuit for sky130_fd_sc_hd__o22ai_1 abstract view
.subckt sky130_fd_sc_hd__o22ai_1 A1 A2 B1 B2 VGND VNB VPB VPWR Y
.ends

* Black-box entry subcircuit for sky130_fd_sc_hd__a32o_1 abstract view
.subckt sky130_fd_sc_hd__a32o_1 A1 A2 A3 B1 B2 VGND VNB VPB VPWR X
.ends

* Black-box entry subcircuit for sky130_fd_sc_hd__dfrtp_2 abstract view
.subckt sky130_fd_sc_hd__dfrtp_2 CLK D RESET_B VGND VNB VPB VPWR Q
.ends

* Black-box entry subcircuit for sky130_fd_sc_hd__o21ai_4 abstract view
.subckt sky130_fd_sc_hd__o21ai_4 A1 A2 B1 VGND VNB VPB VPWR Y
.ends

* Black-box entry subcircuit for sky130_fd_sc_hd__nor3_4 abstract view
.subckt sky130_fd_sc_hd__nor3_4 A B C VGND VNB VPB VPWR Y
.ends

* Black-box entry subcircuit for sky130_fd_sc_hd__nand2_2 abstract view
.subckt sky130_fd_sc_hd__nand2_2 A B VGND VNB VPB VPWR Y
.ends

* Black-box entry subcircuit for sky130_fd_sc_hd__a31o_4 abstract view
.subckt sky130_fd_sc_hd__a31o_4 A1 A2 A3 B1 VGND VNB VPB VPWR X
.ends

* Black-box entry subcircuit for sky130_fd_sc_hd__xnor2_1 abstract view
.subckt sky130_fd_sc_hd__xnor2_1 A B VGND VNB VPB VPWR Y
.ends

* Black-box entry subcircuit for sky130_fd_sc_hd__a31o_1 abstract view
.subckt sky130_fd_sc_hd__a31o_1 A1 A2 A3 B1 VGND VNB VPB VPWR X
.ends

* Black-box entry subcircuit for sky130_fd_sc_hd__or3b_1 abstract view
.subckt sky130_fd_sc_hd__or3b_1 A B C_N VGND VNB VPB VPWR X
.ends

* Black-box entry subcircuit for sky130_fd_sc_hd__o21ai_1 abstract view
.subckt sky130_fd_sc_hd__o21ai_1 A1 A2 B1 VGND VNB VPB VPWR Y
.ends

* Black-box entry subcircuit for sky130_fd_sc_hd__a2bb2o_4 abstract view
.subckt sky130_fd_sc_hd__a2bb2o_4 A1_N A2_N B1 B2 VGND VNB VPB VPWR X
.ends

* Black-box entry subcircuit for sky130_fd_sc_hd__a31o_2 abstract view
.subckt sky130_fd_sc_hd__a31o_2 A1 A2 A3 B1 VGND VNB VPB VPWR X
.ends

* Black-box entry subcircuit for sky130_fd_sc_hd__or4bb_1 abstract view
.subckt sky130_fd_sc_hd__or4bb_1 A B C_N D_N VGND VNB VPB VPWR X
.ends

* Black-box entry subcircuit for sky130_fd_sc_hd__and3_2 abstract view
.subckt sky130_fd_sc_hd__and3_2 A B C VGND VNB VPB VPWR X
.ends

* Black-box entry subcircuit for sky130_fd_sc_hd__nand3_4 abstract view
.subckt sky130_fd_sc_hd__nand3_4 A B C VGND VNB VPB VPWR Y
.ends

* Black-box entry subcircuit for sky130_fd_sc_hd__o211ai_1 abstract view
.subckt sky130_fd_sc_hd__o211ai_1 A1 A2 B1 C1 VGND VNB VPB VPWR Y
.ends

* Black-box entry subcircuit for sky130_fd_sc_hd__a21bo_1 abstract view
.subckt sky130_fd_sc_hd__a21bo_1 A1 A2 B1_N VGND VNB VPB VPWR X
.ends

* Black-box entry subcircuit for sky130_fd_sc_hd__clkbuf_2 abstract view
.subckt sky130_fd_sc_hd__clkbuf_2 A VGND VNB VPB VPWR X
.ends

* Black-box entry subcircuit for sky130_fd_sc_hd__a22oi_4 abstract view
.subckt sky130_fd_sc_hd__a22oi_4 A1 A2 B1 B2 VGND VNB VPB VPWR Y
.ends

* Black-box entry subcircuit for sky130_fd_sc_hd__xor2_1 abstract view
.subckt sky130_fd_sc_hd__xor2_1 A B VGND VNB VPB VPWR X
.ends

* Black-box entry subcircuit for sky130_fd_sc_hd__nor2b_2 abstract view
.subckt sky130_fd_sc_hd__nor2b_2 A B_N VGND VNB VPB VPWR Y
.ends

* Black-box entry subcircuit for sky130_fd_sc_hd__nor4b_4 abstract view
.subckt sky130_fd_sc_hd__nor4b_4 A B C D_N VGND VNB VPB VPWR Y
.ends

* Black-box entry subcircuit for sky130_fd_sc_hd__a211oi_1 abstract view
.subckt sky130_fd_sc_hd__a211oi_1 A1 A2 B1 C1 VGND VNB VPB VPWR Y
.ends

* Black-box entry subcircuit for sky130_fd_sc_hd__o21a_1 abstract view
.subckt sky130_fd_sc_hd__o21a_1 A1 A2 B1 VGND VNB VPB VPWR X
.ends

* Black-box entry subcircuit for sky130_fd_sc_hd__a21oi_2 abstract view
.subckt sky130_fd_sc_hd__a21oi_2 A1 A2 B1 VGND VNB VPB VPWR Y
.ends

* Black-box entry subcircuit for sky130_fd_sc_hd__o21ba_1 abstract view
.subckt sky130_fd_sc_hd__o21ba_1 A1 A2 B1_N VGND VNB VPB VPWR X
.ends

* Black-box entry subcircuit for sky130_fd_sc_hd__a31oi_4 abstract view
.subckt sky130_fd_sc_hd__a31oi_4 A1 A2 A3 B1 VGND VNB VPB VPWR Y
.ends

* Black-box entry subcircuit for sky130_fd_sc_hd__o2bb2a_1 abstract view
.subckt sky130_fd_sc_hd__o2bb2a_1 A1_N A2_N B1 B2 VGND VNB VPB VPWR X
.ends

* Black-box entry subcircuit for sky130_fd_sc_hd__clkinv_2 abstract view
.subckt sky130_fd_sc_hd__clkinv_2 A VGND VNB VPB VPWR Y
.ends

* Black-box entry subcircuit for sky130_fd_sc_hd__and3b_1 abstract view
.subckt sky130_fd_sc_hd__and3b_1 A_N B C VGND VNB VPB VPWR X
.ends

* Black-box entry subcircuit for sky130_fd_sc_hd__and2_2 abstract view
.subckt sky130_fd_sc_hd__and2_2 A B VGND VNB VPB VPWR X
.ends

* Black-box entry subcircuit for sky130_fd_sc_hd__a221o_4 abstract view
.subckt sky130_fd_sc_hd__a221o_4 A1 A2 B1 B2 C1 VGND VNB VPB VPWR X
.ends

* Black-box entry subcircuit for sky130_fd_sc_hd__clkinv_4 abstract view
.subckt sky130_fd_sc_hd__clkinv_4 A VGND VNB VPB VPWR Y
.ends

* Black-box entry subcircuit for sky130_fd_sc_hd__a41o_1 abstract view
.subckt sky130_fd_sc_hd__a41o_1 A1 A2 A3 A4 B1 VGND VNB VPB VPWR X
.ends

* Black-box entry subcircuit for sky130_fd_sc_hd__a211o_4 abstract view
.subckt sky130_fd_sc_hd__a211o_4 A1 A2 B1 C1 VGND VNB VPB VPWR X
.ends

* Black-box entry subcircuit for sky130_fd_sc_hd__a21o_4 abstract view
.subckt sky130_fd_sc_hd__a21o_4 A1 A2 B1 VGND VNB VPB VPWR X
.ends

* Black-box entry subcircuit for sky130_fd_sc_hd__nor2_8 abstract view
.subckt sky130_fd_sc_hd__nor2_8 A B VGND VNB VPB VPWR Y
.ends

* Black-box entry subcircuit for sky130_fd_sc_hd__or2_2 abstract view
.subckt sky130_fd_sc_hd__or2_2 A B VGND VNB VPB VPWR X
.ends

* Black-box entry subcircuit for sky130_fd_sc_hd__nor3_2 abstract view
.subckt sky130_fd_sc_hd__nor3_2 A B C VGND VNB VPB VPWR Y
.ends

* Black-box entry subcircuit for sky130_fd_sc_hd__o221ai_2 abstract view
.subckt sky130_fd_sc_hd__o221ai_2 A1 A2 B1 B2 C1 VGND VNB VPB VPWR Y
.ends

* Black-box entry subcircuit for sky130_fd_sc_hd__buf_6 abstract view
.subckt sky130_fd_sc_hd__buf_6 A VGND VNB VPB VPWR X
.ends

* Black-box entry subcircuit for sky130_fd_sc_hd__a22o_2 abstract view
.subckt sky130_fd_sc_hd__a22o_2 A1 A2 B1 B2 VGND VNB VPB VPWR X
.ends

* Black-box entry subcircuit for sky130_fd_sc_hd__o21bai_2 abstract view
.subckt sky130_fd_sc_hd__o21bai_2 A1 A2 B1_N VGND VNB VPB VPWR Y
.ends

* Black-box entry subcircuit for sky130_fd_sc_hd__o221ai_4 abstract view
.subckt sky130_fd_sc_hd__o221ai_4 A1 A2 B1 B2 C1 VGND VNB VPB VPWR Y
.ends

* Black-box entry subcircuit for sky130_fd_sc_hd__and4b_1 abstract view
.subckt sky130_fd_sc_hd__and4b_1 A_N B C D VGND VNB VPB VPWR X
.ends

* Black-box entry subcircuit for sky130_fd_sc_hd__or4_2 abstract view
.subckt sky130_fd_sc_hd__or4_2 A B C D VGND VNB VPB VPWR X
.ends

* Black-box entry subcircuit for sky130_fd_sc_hd__a221oi_2 abstract view
.subckt sky130_fd_sc_hd__a221oi_2 A1 A2 B1 B2 C1 VGND VNB VPB VPWR Y
.ends

* Black-box entry subcircuit for sky130_fd_sc_hd__o21bai_1 abstract view
.subckt sky130_fd_sc_hd__o21bai_1 A1 A2 B1_N VGND VNB VPB VPWR Y
.ends

* Black-box entry subcircuit for sky130_fd_sc_hd__nor2b_4 abstract view
.subckt sky130_fd_sc_hd__nor2b_4 A B_N VGND VNB VPB VPWR Y
.ends

* Black-box entry subcircuit for sky130_fd_sc_hd__a311o_1 abstract view
.subckt sky130_fd_sc_hd__a311o_1 A1 A2 A3 B1 C1 VGND VNB VPB VPWR X
.ends

* Black-box entry subcircuit for sky130_fd_sc_hd__mux2_4 abstract view
.subckt sky130_fd_sc_hd__mux2_4 A0 A1 S VGND VNB VPB VPWR X
.ends

* Black-box entry subcircuit for sky130_fd_sc_hd__dlymetal6s2s_1 abstract view
.subckt sky130_fd_sc_hd__dlymetal6s2s_1 A VGND VNB VPB VPWR X
.ends

* Black-box entry subcircuit for sky130_fd_sc_hd__xnor2_4 abstract view
.subckt sky130_fd_sc_hd__xnor2_4 A B VGND VNB VPB VPWR Y
.ends

* Black-box entry subcircuit for sky130_fd_sc_hd__o21a_4 abstract view
.subckt sky130_fd_sc_hd__o21a_4 A1 A2 B1 VGND VNB VPB VPWR X
.ends

* Black-box entry subcircuit for sky130_fd_sc_hd__nand4_4 abstract view
.subckt sky130_fd_sc_hd__nand4_4 A B C D VGND VNB VPB VPWR Y
.ends

* Black-box entry subcircuit for sky130_fd_sc_hd__nor2_4 abstract view
.subckt sky130_fd_sc_hd__nor2_4 A B VGND VNB VPB VPWR Y
.ends

* Black-box entry subcircuit for sky130_fd_sc_hd__xor2_4 abstract view
.subckt sky130_fd_sc_hd__xor2_4 A B VGND VNB VPB VPWR X
.ends

* Black-box entry subcircuit for sky130_fd_sc_hd__a311o_4 abstract view
.subckt sky130_fd_sc_hd__a311o_4 A1 A2 A3 B1 C1 VGND VNB VPB VPWR X
.ends

* Black-box entry subcircuit for sky130_fd_sc_hd__a21boi_1 abstract view
.subckt sky130_fd_sc_hd__a21boi_1 A1 A2 B1_N VGND VNB VPB VPWR Y
.ends

* Black-box entry subcircuit for sky130_fd_sc_hd__nand2_8 abstract view
.subckt sky130_fd_sc_hd__nand2_8 A B VGND VNB VPB VPWR Y
.ends

* Black-box entry subcircuit for sky130_fd_sc_hd__a31oi_2 abstract view
.subckt sky130_fd_sc_hd__a31oi_2 A1 A2 A3 B1 VGND VNB VPB VPWR Y
.ends

* Black-box entry subcircuit for sky130_fd_sc_hd__nand4_2 abstract view
.subckt sky130_fd_sc_hd__nand4_2 A B C D VGND VNB VPB VPWR Y
.ends

* Black-box entry subcircuit for sky130_fd_sc_hd__a221o_2 abstract view
.subckt sky130_fd_sc_hd__a221o_2 A1 A2 B1 B2 C1 VGND VNB VPB VPWR X
.ends

* Black-box entry subcircuit for sky130_fd_sc_hd__xor2_2 abstract view
.subckt sky130_fd_sc_hd__xor2_2 A B VGND VNB VPB VPWR X
.ends

* Black-box entry subcircuit for sky130_fd_sc_hd__o21ai_2 abstract view
.subckt sky130_fd_sc_hd__o21ai_2 A1 A2 B1 VGND VNB VPB VPWR Y
.ends

* Black-box entry subcircuit for sky130_fd_sc_hd__a22oi_1 abstract view
.subckt sky130_fd_sc_hd__a22oi_1 A1 A2 B1 B2 VGND VNB VPB VPWR Y
.ends

* Black-box entry subcircuit for sky130_fd_sc_hd__o31ai_2 abstract view
.subckt sky130_fd_sc_hd__o31ai_2 A1 A2 A3 B1 VGND VNB VPB VPWR Y
.ends

* Black-box entry subcircuit for sky130_fd_sc_hd__or3_2 abstract view
.subckt sky130_fd_sc_hd__or3_2 A B C VGND VNB VPB VPWR X
.ends

* Black-box entry subcircuit for sky130_fd_sc_hd__a21o_2 abstract view
.subckt sky130_fd_sc_hd__a21o_2 A1 A2 B1 VGND VNB VPB VPWR X
.ends

* Black-box entry subcircuit for sky130_fd_sc_hd__a2bb2o_2 abstract view
.subckt sky130_fd_sc_hd__a2bb2o_2 A1_N A2_N B1 B2 VGND VNB VPB VPWR X
.ends

* Black-box entry subcircuit for sky130_fd_sc_hd__or4bb_2 abstract view
.subckt sky130_fd_sc_hd__or4bb_2 A B C_N D_N VGND VNB VPB VPWR X
.ends

* Black-box entry subcircuit for sky130_fd_sc_hd__nand2b_2 abstract view
.subckt sky130_fd_sc_hd__nand2b_2 A_N B VGND VNB VPB VPWR Y
.ends

* Black-box entry subcircuit for sky130_fd_sc_hd__and4_4 abstract view
.subckt sky130_fd_sc_hd__and4_4 A B C D VGND VNB VPB VPWR X
.ends

* Black-box entry subcircuit for sky130_fd_sc_hd__nand4b_1 abstract view
.subckt sky130_fd_sc_hd__nand4b_1 A_N B C D VGND VNB VPB VPWR Y
.ends

* Black-box entry subcircuit for sky130_fd_sc_hd__or4bb_4 abstract view
.subckt sky130_fd_sc_hd__or4bb_4 A B C_N D_N VGND VNB VPB VPWR X
.ends

* Black-box entry subcircuit for sky130_fd_sc_hd__o2111ai_4 abstract view
.subckt sky130_fd_sc_hd__o2111ai_4 A1 A2 B1 C1 D1 VGND VNB VPB VPWR Y
.ends

* Black-box entry subcircuit for sky130_fd_sc_hd__inv_6 abstract view
.subckt sky130_fd_sc_hd__inv_6 A VGND VNB VPB VPWR Y
.ends

* Black-box entry subcircuit for sky130_fd_sc_hd__nor4_2 abstract view
.subckt sky130_fd_sc_hd__nor4_2 A B C D VGND VNB VPB VPWR Y
.ends

* Black-box entry subcircuit for sky130_fd_sc_hd__o31ai_1 abstract view
.subckt sky130_fd_sc_hd__o31ai_1 A1 A2 A3 B1 VGND VNB VPB VPWR Y
.ends

* Black-box entry subcircuit for sky130_fd_sc_hd__nand4_1 abstract view
.subckt sky130_fd_sc_hd__nand4_1 A B C D VGND VNB VPB VPWR Y
.ends

* Black-box entry subcircuit for sky130_fd_sc_hd__or3b_2 abstract view
.subckt sky130_fd_sc_hd__or3b_2 A B C_N VGND VNB VPB VPWR X
.ends

* Black-box entry subcircuit for sky130_fd_sc_hd__nor3_1 abstract view
.subckt sky130_fd_sc_hd__nor3_1 A B C VGND VNB VPB VPWR Y
.ends

* Black-box entry subcircuit for sky130_fd_sc_hd__a32oi_4 abstract view
.subckt sky130_fd_sc_hd__a32oi_4 A1 A2 A3 B1 B2 VGND VNB VPB VPWR Y
.ends

* Black-box entry subcircuit for sky130_fd_sc_hd__dfxtp_2 abstract view
.subckt sky130_fd_sc_hd__dfxtp_2 CLK D VGND VNB VPB VPWR Q
.ends

* Black-box entry subcircuit for sky130_fd_sc_hd__and4bb_1 abstract view
.subckt sky130_fd_sc_hd__and4bb_1 A_N B_N C D VGND VNB VPB VPWR X
.ends

* Black-box entry subcircuit for sky130_fd_sc_hd__or3_4 abstract view
.subckt sky130_fd_sc_hd__or3_4 A B C VGND VNB VPB VPWR X
.ends

* Black-box entry subcircuit for sky130_fd_sc_hd__inv_4 abstract view
.subckt sky130_fd_sc_hd__inv_4 A VGND VNB VPB VPWR Y
.ends

* Black-box entry subcircuit for sky130_fd_sc_hd__o221ai_1 abstract view
.subckt sky130_fd_sc_hd__o221ai_1 A1 A2 B1 B2 C1 VGND VNB VPB VPWR Y
.ends

* Black-box entry subcircuit for sky130_fd_sc_hd__clkbuf_8 abstract view
.subckt sky130_fd_sc_hd__clkbuf_8 A VGND VNB VPB VPWR X
.ends

* Black-box entry subcircuit for sky130_fd_sc_hd__and4bb_2 abstract view
.subckt sky130_fd_sc_hd__and4bb_2 A_N B_N C D VGND VNB VPB VPWR X
.ends

* Black-box entry subcircuit for sky130_fd_sc_hd__mux4_2 abstract view
.subckt sky130_fd_sc_hd__mux4_2 A0 A1 A2 A3 S0 S1 VGND VNB VPB VPWR X
.ends

.subckt core VGND VPWR clk_i dmem_addr_o[0] dmem_addr_o[10] dmem_addr_o[11] dmem_addr_o[12]
+ dmem_addr_o[13] dmem_addr_o[14] dmem_addr_o[15] dmem_addr_o[16] dmem_addr_o[17]
+ dmem_addr_o[18] dmem_addr_o[19] dmem_addr_o[1] dmem_addr_o[20] dmem_addr_o[21] dmem_addr_o[22]
+ dmem_addr_o[23] dmem_addr_o[24] dmem_addr_o[25] dmem_addr_o[26] dmem_addr_o[27]
+ dmem_addr_o[28] dmem_addr_o[29] dmem_addr_o[2] dmem_addr_o[30] dmem_addr_o[31] dmem_addr_o[3]
+ dmem_addr_o[4] dmem_addr_o[5] dmem_addr_o[6] dmem_addr_o[7] dmem_addr_o[8] dmem_addr_o[9]
+ dmem_be_o[0] dmem_be_o[1] dmem_be_o[2] dmem_be_o[3] dmem_gnt_i dmem_rdata_i[0] dmem_rdata_i[10]
+ dmem_rdata_i[11] dmem_rdata_i[12] dmem_rdata_i[13] dmem_rdata_i[14] dmem_rdata_i[15]
+ dmem_rdata_i[16] dmem_rdata_i[17] dmem_rdata_i[18] dmem_rdata_i[19] dmem_rdata_i[1]
+ dmem_rdata_i[20] dmem_rdata_i[21] dmem_rdata_i[22] dmem_rdata_i[23] dmem_rdata_i[24]
+ dmem_rdata_i[25] dmem_rdata_i[26] dmem_rdata_i[27] dmem_rdata_i[28] dmem_rdata_i[29]
+ dmem_rdata_i[2] dmem_rdata_i[30] dmem_rdata_i[31] dmem_rdata_i[3] dmem_rdata_i[4]
+ dmem_rdata_i[5] dmem_rdata_i[6] dmem_rdata_i[7] dmem_rdata_i[8] dmem_rdata_i[9]
+ dmem_req_o dmem_rvalid_i dmem_wdata_o[0] dmem_wdata_o[10] dmem_wdata_o[11] dmem_wdata_o[12]
+ dmem_wdata_o[13] dmem_wdata_o[14] dmem_wdata_o[15] dmem_wdata_o[16] dmem_wdata_o[17]
+ dmem_wdata_o[18] dmem_wdata_o[19] dmem_wdata_o[1] dmem_wdata_o[20] dmem_wdata_o[21]
+ dmem_wdata_o[22] dmem_wdata_o[23] dmem_wdata_o[24] dmem_wdata_o[25] dmem_wdata_o[26]
+ dmem_wdata_o[27] dmem_wdata_o[28] dmem_wdata_o[29] dmem_wdata_o[2] dmem_wdata_o[30]
+ dmem_wdata_o[31] dmem_wdata_o[3] dmem_wdata_o[4] dmem_wdata_o[5] dmem_wdata_o[6]
+ dmem_wdata_o[7] dmem_wdata_o[8] dmem_wdata_o[9] dmem_we_o imem_addr_o[0] imem_addr_o[10]
+ imem_addr_o[11] imem_addr_o[12] imem_addr_o[13] imem_addr_o[14] imem_addr_o[15]
+ imem_addr_o[16] imem_addr_o[17] imem_addr_o[18] imem_addr_o[19] imem_addr_o[1] imem_addr_o[20]
+ imem_addr_o[21] imem_addr_o[22] imem_addr_o[23] imem_addr_o[24] imem_addr_o[25]
+ imem_addr_o[26] imem_addr_o[27] imem_addr_o[28] imem_addr_o[29] imem_addr_o[2] imem_addr_o[30]
+ imem_addr_o[31] imem_addr_o[3] imem_addr_o[4] imem_addr_o[5] imem_addr_o[6] imem_addr_o[7]
+ imem_addr_o[8] imem_addr_o[9] imem_be_o[0] imem_be_o[1] imem_be_o[2] imem_be_o[3]
+ imem_gnt_i imem_rdata_i[0] imem_rdata_i[10] imem_rdata_i[11] imem_rdata_i[12] imem_rdata_i[13]
+ imem_rdata_i[14] imem_rdata_i[15] imem_rdata_i[16] imem_rdata_i[17] imem_rdata_i[18]
+ imem_rdata_i[19] imem_rdata_i[1] imem_rdata_i[20] imem_rdata_i[21] imem_rdata_i[22]
+ imem_rdata_i[23] imem_rdata_i[24] imem_rdata_i[25] imem_rdata_i[26] imem_rdata_i[27]
+ imem_rdata_i[28] imem_rdata_i[29] imem_rdata_i[2] imem_rdata_i[30] imem_rdata_i[31]
+ imem_rdata_i[3] imem_rdata_i[4] imem_rdata_i[5] imem_rdata_i[6] imem_rdata_i[7]
+ imem_rdata_i[8] imem_rdata_i[9] imem_req_o imem_rvalid_i imem_wdata_o[0] imem_wdata_o[10]
+ imem_wdata_o[11] imem_wdata_o[12] imem_wdata_o[13] imem_wdata_o[14] imem_wdata_o[15]
+ imem_wdata_o[16] imem_wdata_o[17] imem_wdata_o[18] imem_wdata_o[19] imem_wdata_o[1]
+ imem_wdata_o[20] imem_wdata_o[21] imem_wdata_o[22] imem_wdata_o[23] imem_wdata_o[24]
+ imem_wdata_o[25] imem_wdata_o[26] imem_wdata_o[27] imem_wdata_o[28] imem_wdata_o[29]
+ imem_wdata_o[2] imem_wdata_o[30] imem_wdata_o[31] imem_wdata_o[3] imem_wdata_o[4]
+ imem_wdata_o[5] imem_wdata_o[6] imem_wdata_o[7] imem_wdata_o[8] imem_wdata_o[9]
+ imem_we_o rf_port1_reg_o[0] rf_port1_reg_o[1] rf_port1_reg_o[2] rf_port1_reg_o[3]
+ rf_port1_reg_o[4] rf_port2_reg_o[0] rf_port2_reg_o[1] rf_port2_reg_o[2] rf_port2_reg_o[3]
+ rf_port2_reg_o[4] rf_rs1_i[0] rf_rs1_i[10] rf_rs1_i[11] rf_rs1_i[12] rf_rs1_i[13]
+ rf_rs1_i[14] rf_rs1_i[15] rf_rs1_i[16] rf_rs1_i[17] rf_rs1_i[18] rf_rs1_i[19] rf_rs1_i[1]
+ rf_rs1_i[20] rf_rs1_i[21] rf_rs1_i[22] rf_rs1_i[23] rf_rs1_i[24] rf_rs1_i[25] rf_rs1_i[26]
+ rf_rs1_i[27] rf_rs1_i[28] rf_rs1_i[29] rf_rs1_i[2] rf_rs1_i[30] rf_rs1_i[31] rf_rs1_i[3]
+ rf_rs1_i[4] rf_rs1_i[5] rf_rs1_i[6] rf_rs1_i[7] rf_rs1_i[8] rf_rs1_i[9] rf_rs2_i[0]
+ rf_rs2_i[10] rf_rs2_i[11] rf_rs2_i[12] rf_rs2_i[13] rf_rs2_i[14] rf_rs2_i[15] rf_rs2_i[16]
+ rf_rs2_i[17] rf_rs2_i[18] rf_rs2_i[19] rf_rs2_i[1] rf_rs2_i[20] rf_rs2_i[21] rf_rs2_i[22]
+ rf_rs2_i[23] rf_rs2_i[24] rf_rs2_i[25] rf_rs2_i[26] rf_rs2_i[27] rf_rs2_i[28] rf_rs2_i[29]
+ rf_rs2_i[2] rf_rs2_i[30] rf_rs2_i[31] rf_rs2_i[3] rf_rs2_i[4] rf_rs2_i[5] rf_rs2_i[6]
+ rf_rs2_i[7] rf_rs2_i[8] rf_rs2_i[9] rf_wr_data_o[0] rf_wr_data_o[10] rf_wr_data_o[11]
+ rf_wr_data_o[12] rf_wr_data_o[13] rf_wr_data_o[14] rf_wr_data_o[15] rf_wr_data_o[16]
+ rf_wr_data_o[17] rf_wr_data_o[18] rf_wr_data_o[19] rf_wr_data_o[1] rf_wr_data_o[20]
+ rf_wr_data_o[21] rf_wr_data_o[22] rf_wr_data_o[23] rf_wr_data_o[24] rf_wr_data_o[25]
+ rf_wr_data_o[26] rf_wr_data_o[27] rf_wr_data_o[28] rf_wr_data_o[29] rf_wr_data_o[2]
+ rf_wr_data_o[30] rf_wr_data_o[31] rf_wr_data_o[3] rf_wr_data_o[4] rf_wr_data_o[5]
+ rf_wr_data_o[6] rf_wr_data_o[7] rf_wr_data_o[8] rf_wr_data_o[9] rf_wr_en_o rf_wr_reg_o[0]
+ rf_wr_reg_o[1] rf_wr_reg_o[2] rf_wr_reg_o[3] rf_wr_reg_o[4] rst_ni
XFILLER_0_94_77 VGND VGND VPWR VPWR sky130_fd_sc_hd__decap_6
X_3155_ _0465_ _0551_ VGND VGND VPWR VPWR _1067_ sky130_fd_sc_hd__and2_1
X_3086_ _0507_ _0988_ VGND VGND VPWR VPWR _0998_ sky130_fd_sc_hd__and2b_1
XFILLER_0_89_461 VGND VGND VPWR VPWR sky130_ef_sc_hd__decap_12
XFILLER_0_76_177 VGND VGND VPWR VPWR sky130_fd_sc_hd__fill_1
X_3988_ net7 net25 i_exec_stage.exec_state_o\[8\] VGND VGND VPWR VPWR _1831_ sky130_fd_sc_hd__mux2_2
XFILLER_0_57_391 VGND VGND VPWR VPWR sky130_fd_sc_hd__fill_1
X_2939_ i_decode_stage.reg_meta_o\[20\] _0727_ _0386_ _0853_ VGND VGND VPWR VPWR _0854_
+ sky130_fd_sc_hd__a211o_1
XFILLER_0_60_512 VGND VGND VPWR VPWR sky130_fd_sc_hd__fill_1
XFILLER_0_13_461 VGND VGND VPWR VPWR sky130_ef_sc_hd__decap_12
X_4609_ _2232_ VGND VGND VPWR VPWR _0194_ sky130_fd_sc_hd__clkbuf_1
XFILLER_0_28_509 VGND VGND VPWR VPWR sky130_fd_sc_hd__decap_3
XFILLER_0_95_497 VGND VGND VPWR VPWR sky130_fd_sc_hd__decap_6
XFILLER_0_48_391 VGND VGND VPWR VPWR sky130_fd_sc_hd__decap_6
XFILLER_0_23_225 VGND VGND VPWR VPWR sky130_fd_sc_hd__decap_8
XFILLER_0_48_37 VGND VGND VPWR VPWR sky130_fd_sc_hd__decap_3
XFILLER_0_78_409 VGND VGND VPWR VPWR sky130_fd_sc_hd__fill_2
XFILLER_0_98_280 VGND VGND VPWR VPWR sky130_fd_sc_hd__decap_8
X_4960_ clknet_leaf_4_clk_i _0140_ net283 VGND VGND VPWR VPWR i_decode_stage.reg_meta_o\[21\]
+ sky130_fd_sc_hd__dfrtp_1
XFILLER_0_19_509 VGND VGND VPWR VPWR sky130_fd_sc_hd__fill_1
X_4891_ clknet_leaf_19_clk_i _0071_ net296 VGND VGND VPWR VPWR i_decode_stage.decode_state_o\[129\]
+ sky130_fd_sc_hd__dfrtp_4
X_3911_ _0444_ _1774_ VGND VGND VPWR VPWR _1781_ sky130_fd_sc_hd__nor2_1
X_3842_ _0448_ _1716_ _1721_ _1501_ _1416_ VGND VGND VPWR VPWR _1722_ sky130_fd_sc_hd__o32a_1
XFILLER_0_46_339 VGND VGND VPWR VPWR sky130_fd_sc_hd__fill_1
XFILLER_0_6_469 VGND VGND VPWR VPWR sky130_fd_sc_hd__decap_6
X_3773_ _0773_ _1654_ VGND VGND VPWR VPWR _1656_ sky130_fd_sc_hd__nand2_1
XFILLER_0_89_55 VGND VGND VPWR VPWR sky130_fd_sc_hd__fill_1
X_2724_ _0647_ _0352_ _0355_ _0357_ VGND VGND VPWR VPWR _0648_ sky130_fd_sc_hd__or4_1
X_2655_ _0448_ _0583_ _0584_ VGND VGND VPWR VPWR _0585_ sky130_fd_sc_hd__a21o_1
X_2586_ _2333_ _0519_ _0521_ VGND VGND VPWR VPWR _0525_ sky130_fd_sc_hd__a21oi_4
X_4325_ net222 net225 net226 VGND VGND VPWR VPWR _2051_ sky130_fd_sc_hd__and3_1
XFILLER_0_10_475 VGND VGND VPWR VPWR sky130_fd_sc_hd__fill_1
X_4256_ i_decode_stage.decode_state_o\[71\] i_decode_stage.fetch_state_i\[63\] _1982_
+ VGND VGND VPWR VPWR _2007_ sky130_fd_sc_hd__mux2_1
X_4187_ i_decode_stage.fetch_state_i\[29\] i_decode_stage.decode_state_o\[37\] _1967_
+ VGND VGND VPWR VPWR _1972_ sky130_fd_sc_hd__mux2_1
X_3207_ _1111_ _1113_ _1114_ _1105_ VGND VGND VPWR VPWR net165 sky130_fd_sc_hd__a31oi_1
X_3138_ _0465_ _0464_ VGND VGND VPWR VPWR _1050_ sky130_fd_sc_hd__and2_1
XTAP_1129 VGND VPWR sky130_fd_sc_hd__tapvpwrvgnd_1
XTAP_1118 VGND VPWR sky130_fd_sc_hd__tapvpwrvgnd_1
XTAP_1107 VGND VPWR sky130_fd_sc_hd__tapvpwrvgnd_1
XFILLER_0_49_111 VGND VGND VPWR VPWR sky130_fd_sc_hd__fill_1
XFILLER_0_54_80 VGND VGND VPWR VPWR sky130_fd_sc_hd__decap_4
X_3069_ _0495_ _0980_ VGND VGND VPWR VPWR _0981_ sky130_fd_sc_hd__nor2_1
XFILLER_0_92_412 VGND VGND VPWR VPWR sky130_fd_sc_hd__decap_8
XFILLER_0_92_445 VGND VGND VPWR VPWR sky130_ef_sc_hd__decap_12
XFILLER_0_52_309 VGND VGND VPWR VPWR sky130_fd_sc_hd__decap_6
XFILLER_0_92_489 VGND VGND VPWR VPWR sky130_ef_sc_hd__decap_12
XFILLER_0_45_361 VGND VGND VPWR VPWR sky130_fd_sc_hd__decap_8
XFILLER_0_20_206 VGND VGND VPWR VPWR sky130_fd_sc_hd__decap_4
XFILLER_0_60_342 VGND VGND VPWR VPWR sky130_fd_sc_hd__fill_1
XFILLER_0_95_250 VGND VGND VPWR VPWR sky130_ef_sc_hd__decap_12
XFILLER_0_68_442 VGND VGND VPWR VPWR sky130_ef_sc_hd__decap_12
XFILLER_0_83_445 VGND VGND VPWR VPWR sky130_fd_sc_hd__decap_3
XFILLER_0_24_501 VGND VGND VPWR VPWR sky130_fd_sc_hd__decap_8