*SPEF "ieee 1481-1999"
*DESIGN "spm"
*DATE "11:11:11 Fri 11 11, 1111"
*VENDOR "OpenRCX"
*PROGRAM "Parallel Extraction"
*VERSION "1.0"
*DESIGN_FLOW "NAME_SCOPE LOCAL" "PIN_CAP NONE"
*DIVIDER /
*DELIMITER :
*BUS_DELIMITER []
*T_UNIT 1 NS
*C_UNIT 1 PF
*R_UNIT 1 OHM
*L_UNIT 1 HENRY

*NAME_MAP
*3 clk
*4 p
*5 rst
*6 x[0]
*7 x[10]
*8 x[11]
*9 x[12]
*10 x[13]
*11 x[14]
*12 x[15]
*13 x[16]
*14 x[17]
*15 x[18]
*16 x[19]
*17 x[1]
*18 x[20]
*19 x[21]
*20 x[22]
*21 x[23]
*22 x[24]
*23 x[25]
*24 x[26]
*25 x[27]
*26 x[28]
*27 x[29]
*28 x[2]
*29 x[30]
*30 x[31]
*31 x[3]
*32 x[4]
*33 x[5]
*34 x[6]
*35 x[7]
*36 x[8]
*37 x[9]
*38 y
*39 _000_
*40 _001_
*41 _002_
*42 _003_
*43 _004_
*44 _005_
*45 _006_
*46 _007_
*47 _008_
*48 _009_
*49 _010_
*50 _011_
*51 _012_
*52 _013_
*53 _014_
*54 _015_
*55 _016_
*56 _017_
*57 _018_
*58 _019_
*59 _020_
*60 _021_
*61 _022_
*62 _023_
*63 _024_
*64 _025_
*65 _026_
*66 _027_
*67 _028_
*68 _029_
*69 _030_
*70 _031_
*71 _032_
*72 _033_
*73 _034_
*74 _035_
*75 _036_
*76 _037_
*77 _038_
*78 _039_
*79 _040_
*80 _041_
*81 _042_
*82 _043_
*83 _044_
*84 _045_
*85 _046_
*86 _047_
*87 _048_
*88 _049_
*89 _050_
*90 _051_
*91 _052_
*92 _053_
*93 _054_
*94 _055_
*95 _056_
*96 _057_
*97 _058_
*98 _059_
*99 _060_
*100 _061_
*101 _062_
*102 _063_
*103 _064_
*104 _065_
*105 _066_
*106 _067_
*107 _068_
*108 _069_
*109 _070_
*110 _071_
*111 _072_
*112 _073_
*113 _074_
*114 _075_
*115 _076_
*116 _077_
*117 _078_
*118 _079_
*119 _080_
*120 _081_
*121 _082_
*122 _083_
*123 _084_
*124 _085_
*125 _086_
*126 _087_
*127 _088_
*128 _089_
*129 _090_
*130 _091_
*131 _092_
*132 _093_
*133 _094_
*134 _095_
*135 _096_
*136 _097_
*137 _098_
*138 _099_
*139 _100_
*140 _101_
*141 _102_
*142 _103_
*143 _104_
*144 _105_
*145 _106_
*146 _107_
*147 _108_
*148 _109_
*149 _110_
*150 _111_
*151 _112_
*152 _113_
*153 _114_
*154 _115_
*155 _116_
*156 _117_
*157 _118_
*158 _119_
*159 _120_
*160 _121_
*161 _122_
*162 _123_
*163 _124_
*164 _125_
*165 _126_
*166 _127_
*167 _128_
*168 _129_
*169 _130_
*170 _131_
*171 _132_
*172 _133_
*173 _134_
*174 _135_
*175 _136_
*176 _137_
*177 _138_
*178 _139_
*179 _140_
*180 _141_
*181 _142_
*182 _143_
*183 _144_
*184 _145_
*185 _146_
*186 _147_
*187 _148_
*188 _149_
*189 _150_
*190 _151_
*191 _152_
*192 _153_
*193 _154_
*194 _155_
*195 _156_
*196 _157_
*197 _158_
*198 _159_
*199 _160_
*200 _161_
*201 _162_
*202 _163_
*203 _164_
*204 _165_
*205 _166_
*206 _167_
*207 _168_
*208 _169_
*209 _170_
*210 _171_
*211 _172_
*212 _173_
*213 _174_
*214 _175_
*215 _176_
*216 _177_
*217 _178_
*218 _179_
*219 _180_
*220 _181_
*221 _182_
*222 _183_
*223 _184_
*224 _185_
*225 _186_
*226 _187_
*227 _188_
*228 _189_
*229 _190_
*230 _191_
*231 _192_
*232 _193_
*233 _194_
*234 _195_
*235 _196_
*236 _197_
*237 _198_
*238 _199_
*239 _200_
*240 _201_
*241 _202_
*242 _203_
*243 _204_
*244 _205_
*245 clknet_0_clk
*246 clknet_3_0__leaf_clk
*247 clknet_3_1__leaf_clk
*248 clknet_3_2__leaf_clk
*249 clknet_3_3__leaf_clk
*250 clknet_3_4__leaf_clk
*251 clknet_3_5__leaf_clk
*252 clknet_3_6__leaf_clk
*253 clknet_3_7__leaf_clk
*254 csa0\.hsum2
*255 csa0\.sc
*256 csa0\.y
*257 genblk1\[10\]\.csa\.hsum2
*258 genblk1\[10\]\.csa\.sc
*259 genblk1\[10\]\.csa\.sum
*260 genblk1\[10\]\.csa\.y
*261 genblk1\[11\]\.csa\.hsum2
*262 genblk1\[11\]\.csa\.sc
*263 genblk1\[11\]\.csa\.y
*264 genblk1\[12\]\.csa\.hsum2
*265 genblk1\[12\]\.csa\.sc
*266 genblk1\[12\]\.csa\.y
*267 genblk1\[13\]\.csa\.hsum2
*268 genblk1\[13\]\.csa\.sc
*269 genblk1\[13\]\.csa\.y
*270 genblk1\[14\]\.csa\.hsum2
*271 genblk1\[14\]\.csa\.sc
*272 genblk1\[14\]\.csa\.y
*273 genblk1\[15\]\.csa\.hsum2
*274 genblk1\[15\]\.csa\.sc
*275 genblk1\[15\]\.csa\.y
*276 genblk1\[16\]\.csa\.hsum2
*277 genblk1\[16\]\.csa\.sc
*278 genblk1\[16\]\.csa\.y
*279 genblk1\[17\]\.csa\.hsum2
*280 genblk1\[17\]\.csa\.sc
*281 genblk1\[17\]\.csa\.y
*282 genblk1\[18\]\.csa\.hsum2
*283 genblk1\[18\]\.csa\.sc
*284 genblk1\[18\]\.csa\.y
*285 genblk1\[19\]\.csa\.hsum2
*286 genblk1\[19\]\.csa\.sc
*287 genblk1\[19\]\.csa\.y
*288 genblk1\[1\]\.csa\.hsum2
*289 genblk1\[1\]\.csa\.sc
*290 genblk1\[1\]\.csa\.y
*291 genblk1\[20\]\.csa\.hsum2
*292 genblk1\[20\]\.csa\.sc
*293 genblk1\[20\]\.csa\.y
*294 genblk1\[21\]\.csa\.hsum2
*295 genblk1\[21\]\.csa\.sc
*296 genblk1\[21\]\.csa\.y
*297 genblk1\[22\]\.csa\.hsum2
*298 genblk1\[22\]\.csa\.sc
*299 genblk1\[22\]\.csa\.y
*300 genblk1\[23\]\.csa\.hsum2
*301 genblk1\[23\]\.csa\.sc
*302 genblk1\[23\]\.csa\.y
*303 genblk1\[24\]\.csa\.hsum2
*304 genblk1\[24\]\.csa\.sc
*305 genblk1\[24\]\.csa\.y
*306 genblk1\[25\]\.csa\.hsum2
*307 genblk1\[25\]\.csa\.sc
*308 genblk1\[25\]\.csa\.y
*309 genblk1\[26\]\.csa\.hsum2
*310 genblk1\[26\]\.csa\.sc
*311 genblk1\[26\]\.csa\.y
*312 genblk1\[27\]\.csa\.hsum2
*313 genblk1\[27\]\.csa\.sc
*314 genblk1\[27\]\.csa\.y
*315 genblk1\[28\]\.csa\.hsum2
*316 genblk1\[28\]\.csa\.sc
*317 genblk1\[28\]\.csa\.y
*318 genblk1\[29\]\.csa\.hsum2
*319 genblk1\[29\]\.csa\.sc
*320 genblk1\[29\]\.csa\.y
*321 genblk1\[2\]\.csa\.hsum2
*322 genblk1\[2\]\.csa\.sc
*323 genblk1\[2\]\.csa\.y
*324 genblk1\[30\]\.csa\.hsum2
*325 genblk1\[30\]\.csa\.sc
*326 genblk1\[30\]\.csa\.y
*327 genblk1\[3\]\.csa\.hsum2
*328 genblk1\[3\]\.csa\.sc
*329 genblk1\[3\]\.csa\.y
*330 genblk1\[4\]\.csa\.hsum2
*331 genblk1\[4\]\.csa\.sc
*332 genblk1\[4\]\.csa\.y
*333 genblk1\[5\]\.csa\.hsum2
*334 genblk1\[5\]\.csa\.sc
*335 genblk1\[5\]\.csa\.y
*336 genblk1\[6\]\.csa\.hsum2
*337 genblk1\[6\]\.csa\.sc
*338 genblk1\[6\]\.csa\.y
*339 genblk1\[7\]\.csa\.hsum2
*340 genblk1\[7\]\.csa\.sc
*341 genblk1\[7\]\.csa\.y
*342 genblk1\[8\]\.csa\.hsum2
*343 genblk1\[8\]\.csa\.sc
*344 genblk1\[8\]\.csa\.y
*345 genblk1\[9\]\.csa\.hsum2
*346 genblk1\[9\]\.csa\.sc
*347 net1
*348 net10
*349 net11
*350 net12
*351 net13
*352 net14
*353 net15
*354 net16
*355 net17
*356 net18
*357 net19
*358 net2
*359 net20
*360 net21
*361 net22
*362 net23
*363 net24
*364 net25
*365 net26
*366 net27
*367 net28
*368 net29
*369 net3
*370 net30
*371 net31
*372 net32
*373 net33
*374 net34
*375 net35
*376 net4
*377 net5
*378 net6
*379 net7
*380 net8
*381 net9
*382 tcmp\.z
*383 FILLER_0_0_103
*384 FILLER_0_0_111
*385 FILLER_0_0_113
*386 FILLER_0_0_125
*387 FILLER_0_0_137
*388 FILLER_0_0_141
*389 FILLER_0_0_15
*390 FILLER_0_0_153
*391 FILLER_0_0_164
*392 FILLER_0_0_169
*393 FILLER_0_0_181
*394 FILLER_0_0_193
*395 FILLER_0_0_27
*396 FILLER_0_0_29
*397 FILLER_0_0_3
*398 FILLER_0_0_41
*399 FILLER_0_0_53
*400 FILLER_0_0_57
*401 FILLER_0_0_69
*402 FILLER_0_0_81
*403 FILLER_0_0_85
*404 FILLER_0_0_97
*405 FILLER_0_10_11
*406 FILLER_0_10_121
*407 FILLER_0_10_133
*408 FILLER_0_10_139
*409 FILLER_0_10_181
*410 FILLER_0_10_19
*411 FILLER_0_10_193
*412 FILLER_0_10_27
*413 FILLER_0_10_3
*414 FILLER_0_10_39
*415 FILLER_0_10_43
*416 FILLER_0_10_85
*417 FILLER_0_10_97
*418 FILLER_0_11_103
*419 FILLER_0_11_111
*420 FILLER_0_11_113
*421 FILLER_0_11_125
*422 FILLER_0_11_137
*423 FILLER_0_11_149
*424 FILLER_0_11_161
*425 FILLER_0_11_167
*426 FILLER_0_11_17
*427 FILLER_0_11_192
*428 FILLER_0_11_29
*429 FILLER_0_11_3
*430 FILLER_0_11_35
*431 FILLER_0_11_57
*432 FILLER_0_11_69
*433 FILLER_0_11_91
*434 FILLER_0_12_109
*435 FILLER_0_12_141
*436 FILLER_0_12_145
*437 FILLER_0_12_15
*438 FILLER_0_12_166
*439 FILLER_0_12_170
*440 FILLER_0_12_27
*441 FILLER_0_12_29
*442 FILLER_0_12_3
*443 FILLER_0_12_33
*444 FILLER_0_12_40
*445 FILLER_0_12_66
*446 FILLER_0_12_78
*447 FILLER_0_12_85
*448 FILLER_0_12_97
*449 FILLER_0_13_12
*450 FILLER_0_13_153
*451 FILLER_0_13_159
*452 FILLER_0_13_167
*453 FILLER_0_13_189
*454 FILLER_0_13_193
*455 FILLER_0_13_24
*456 FILLER_0_13_29
*457 FILLER_0_13_3
*458 FILLER_0_13_57
*459 FILLER_0_13_69
*460 FILLER_0_13_90
*461 FILLER_0_14_127
*462 FILLER_0_14_131
*463 FILLER_0_14_139
*464 FILLER_0_14_141
*465 FILLER_0_14_153
*466 FILLER_0_14_157
*467 FILLER_0_14_178
*468 FILLER_0_14_183
*469 FILLER_0_14_191
*470 FILLER_0_14_3
*471 FILLER_0_14_36
*472 FILLER_0_14_44
*473 FILLER_0_14_65
*474 FILLER_0_14_77
*475 FILLER_0_14_83
*476 FILLER_0_14_85
*477 FILLER_0_14_97
*478 FILLER_0_15_105
*479 FILLER_0_15_111
*480 FILLER_0_15_153
*481 FILLER_0_15_159
*482 FILLER_0_15_163
*483 FILLER_0_15_167
*484 FILLER_0_15_169
*485 FILLER_0_15_18
*486 FILLER_0_15_193
*487 FILLER_0_15_3
*488 FILLER_0_15_30
*489 FILLER_0_15_42
*490 FILLER_0_15_54
*491 FILLER_0_15_57
*492 FILLER_0_15_63
*493 FILLER_0_15_84
*494 FILLER_0_15_9
*495 FILLER_0_16_105
*496 FILLER_0_16_11
*497 FILLER_0_16_129
*498 FILLER_0_16_139
*499 FILLER_0_16_144
*500 FILLER_0_16_150
*501 FILLER_0_16_177
*502 FILLER_0_16_185
*503 FILLER_0_16_19
*504 FILLER_0_16_190
*505 FILLER_0_16_27
*506 FILLER_0_16_29
*507 FILLER_0_16_3
*508 FILLER_0_16_40
*509 FILLER_0_16_85
*510 FILLER_0_16_97
*511 FILLER_0_17_113
*512 FILLER_0_17_121
*513 FILLER_0_17_142
*514 FILLER_0_17_15
*515 FILLER_0_17_167
*516 FILLER_0_17_169
*517 FILLER_0_17_173
*518 FILLER_0_17_27
*519 FILLER_0_17_3
*520 FILLER_0_17_31
*521 FILLER_0_17_35
*522 FILLER_0_17_57
*523 FILLER_0_17_69
*524 FILLER_0_17_9
*525 FILLER_0_17_91
*526 FILLER_0_18_124
*527 FILLER_0_18_136
*528 FILLER_0_18_141
*529 FILLER_0_18_153
*530 FILLER_0_18_161
*531 FILLER_0_18_17
*532 FILLER_0_18_182
*533 FILLER_0_18_25
*534 FILLER_0_18_41
*535 FILLER_0_18_65
*536 FILLER_0_18_77
*537 FILLER_0_18_83
*538 FILLER_0_18_85
*539 FILLER_0_18_97
*540 FILLER_0_19_105
*541 FILLER_0_19_111
*542 FILLER_0_19_113
*543 FILLER_0_19_125
*544 FILLER_0_19_129
*545 FILLER_0_19_13
*546 FILLER_0_19_150
*547 FILLER_0_19_162
*548 FILLER_0_19_169
*549 FILLER_0_19_181
*550 FILLER_0_19_193
*551 FILLER_0_19_3
*552 FILLER_0_19_35
*553 FILLER_0_19_47
*554 FILLER_0_19_55
*555 FILLER_0_19_57
*556 FILLER_0_19_69
*557 FILLER_0_19_93
*558 FILLER_0_1_107
*559 FILLER_0_1_113
*560 FILLER_0_1_122
*561 FILLER_0_1_138
*562 FILLER_0_1_149
*563 FILLER_0_1_15
*564 FILLER_0_1_164
*565 FILLER_0_1_169
*566 FILLER_0_1_178
*567 FILLER_0_1_27
*568 FILLER_0_1_3
*569 FILLER_0_1_45
*570 FILLER_0_1_53
*571 FILLER_0_1_57
*572 FILLER_0_1_69
*573 FILLER_0_1_81
*574 FILLER_0_1_90
*575 FILLER_0_20_120
*576 FILLER_0_20_132
*577 FILLER_0_20_14
*578 FILLER_0_20_181
*579 FILLER_0_20_193
*580 FILLER_0_20_26
*581 FILLER_0_20_29
*582 FILLER_0_20_3
*583 FILLER_0_20_41
*584 FILLER_0_20_64
*585 FILLER_0_20_76
*586 FILLER_0_20_85
*587 FILLER_0_20_97
*588 FILLER_0_21_113
*589 FILLER_0_21_15
*590 FILLER_0_21_155
*591 FILLER_0_21_167
*592 FILLER_0_21_169
*593 FILLER_0_21_173
*594 FILLER_0_21_27
*595 FILLER_0_21_3
*596 FILLER_0_21_39
*597 FILLER_0_21_51
*598 FILLER_0_21_55
*599 FILLER_0_21_57
*600 FILLER_0_21_69
*601 FILLER_0_21_81
*602 FILLER_0_21_89
*603 FILLER_0_22_105
*604 FILLER_0_22_117
*605 FILLER_0_22_129
*606 FILLER_0_22_137
*607 FILLER_0_22_141
*608 FILLER_0_22_147
*609 FILLER_0_22_15
*610 FILLER_0_22_168
*611 FILLER_0_22_20
*612 FILLER_0_22_3
*613 FILLER_0_22_39
*614 FILLER_0_22_43
*615 FILLER_0_23_106
*616 FILLER_0_23_113
*617 FILLER_0_23_125
*618 FILLER_0_23_137
*619 FILLER_0_23_149
*620 FILLER_0_23_15
*621 FILLER_0_23_161
*622 FILLER_0_23_167
*623 FILLER_0_23_169
*624 FILLER_0_23_181
*625 FILLER_0_23_193
*626 FILLER_0_23_27
*627 FILLER_0_23_3
*628 FILLER_0_23_39
*629 FILLER_0_23_51
*630 FILLER_0_23_55
*631 FILLER_0_23_57
*632 FILLER_0_23_69
*633 FILLER_0_23_73
*634 FILLER_0_23_94
*635 FILLER_0_24_104
*636 FILLER_0_24_109
*637 FILLER_0_24_117
*638 FILLER_0_24_123
*639 FILLER_0_24_131
*640 FILLER_0_24_138
*641 FILLER_0_24_144
*642 FILLER_0_24_15
*643 FILLER_0_24_150
*644 FILLER_0_24_154
*645 FILLER_0_24_158
*646 FILLER_0_24_162
*647 FILLER_0_24_168
*648 FILLER_0_24_177
*649 FILLER_0_24_183
*650 FILLER_0_24_189
*651 FILLER_0_24_193
*652 FILLER_0_24_27
*653 FILLER_0_24_29
*654 FILLER_0_24_3
*655 FILLER_0_24_37
*656 FILLER_0_24_43
*657 FILLER_0_24_64
*658 FILLER_0_24_76
*659 FILLER_0_24_88
*660 FILLER_0_24_93
*661 FILLER_0_25_149
*662 FILLER_0_25_15
*663 FILLER_0_25_193
*664 FILLER_0_25_23
*665 FILLER_0_25_3
*666 FILLER_0_25_33
*667 FILLER_0_25_53
*668 FILLER_0_25_57
*669 FILLER_0_25_67
*670 FILLER_0_25_75
*671 FILLER_0_25_88
*672 FILLER_0_25_95
*673 FILLER_0_26_102
*674 FILLER_0_26_114
*675 FILLER_0_26_126
*676 FILLER_0_26_138
*677 FILLER_0_26_144
*678 FILLER_0_26_156
*679 FILLER_0_26_168
*680 FILLER_0_26_180
*681 FILLER_0_26_189
*682 FILLER_0_26_193
*683 FILLER_0_26_21
*684 FILLER_0_26_27
*685 FILLER_0_26_29
*686 FILLER_0_26_3
*687 FILLER_0_26_37
*688 FILLER_0_26_43
*689 FILLER_0_26_63
*690 FILLER_0_26_75
*691 FILLER_0_26_83
*692 FILLER_0_26_85
*693 FILLER_0_26_92
*694 FILLER_0_26_98
*695 FILLER_0_27_111
*696 FILLER_0_27_118
*697 FILLER_0_27_122
*698 FILLER_0_27_128
*699 FILLER_0_27_140
*700 FILLER_0_27_144
*701 FILLER_0_27_150
*702 FILLER_0_27_162
*703 FILLER_0_27_169
*704 FILLER_0_27_18
*705 FILLER_0_27_181
*706 FILLER_0_27_193
*707 FILLER_0_27_30
*708 FILLER_0_27_42
*709 FILLER_0_27_54
*710 FILLER_0_27_57
*711 FILLER_0_27_6
*712 FILLER_0_27_69
*713 FILLER_0_27_81
*714 FILLER_0_27_87
*715 FILLER_0_27_99
*716 FILLER_0_28_116
*717 FILLER_0_28_15
*718 FILLER_0_28_155
*719 FILLER_0_28_168
*720 FILLER_0_28_176
*721 FILLER_0_28_189
*722 FILLER_0_28_193
*723 FILLER_0_28_29
*724 FILLER_0_28_3
*725 FILLER_0_28_38
*726 FILLER_0_28_48
*727 FILLER_0_28_54
*728 FILLER_0_28_65
*729 FILLER_0_28_95
*730 FILLER_0_29_110
*731 FILLER_0_29_113
*732 FILLER_0_29_125
*733 FILLER_0_29_137
*734 FILLER_0_29_143
*735 FILLER_0_29_147
*736 FILLER_0_29_15
*737 FILLER_0_29_166
*738 FILLER_0_29_169
*739 FILLER_0_29_173
*740 FILLER_0_29_193
*741 FILLER_0_29_27
*742 FILLER_0_29_3
*743 FILLER_0_29_39
*744 FILLER_0_29_46
*745 FILLER_0_29_54
*746 FILLER_0_29_69
*747 FILLER_0_29_77
*748 FILLER_0_29_86
*749 FILLER_0_29_98
*750 FILLER_0_2_100
*751 FILLER_0_2_112
*752 FILLER_0_2_124
*753 FILLER_0_2_128
*754 FILLER_0_2_136
*755 FILLER_0_2_141
*756 FILLER_0_2_15
*757 FILLER_0_2_160
*758 FILLER_0_2_166
*759 FILLER_0_2_170
*760 FILLER_0_2_185
*761 FILLER_0_2_193
*762 FILLER_0_2_27
*763 FILLER_0_2_29
*764 FILLER_0_2_3
*765 FILLER_0_2_41
*766 FILLER_0_2_53
*767 FILLER_0_2_65
*768 FILLER_0_2_77
*769 FILLER_0_2_83
*770 FILLER_0_2_88
*771 FILLER_0_30_105
*772 FILLER_0_30_112
*773 FILLER_0_30_123
*774 FILLER_0_30_135
*775 FILLER_0_30_139
*776 FILLER_0_30_141
*777 FILLER_0_30_15
*778 FILLER_0_30_153
*779 FILLER_0_30_165
*780 FILLER_0_30_177
*781 FILLER_0_30_190
*782 FILLER_0_30_27
*783 FILLER_0_30_29
*784 FILLER_0_30_3
*785 FILLER_0_30_35
*786 FILLER_0_30_39
*787 FILLER_0_30_51
*788 FILLER_0_30_66
*789 FILLER_0_30_74
*790 FILLER_0_30_82
*791 FILLER_0_30_85
*792 FILLER_0_30_97
*793 FILLER_0_31_103
*794 FILLER_0_31_111
*795 FILLER_0_31_120
*796 FILLER_0_31_129
*797 FILLER_0_31_141
*798 FILLER_0_31_148
*799 FILLER_0_31_15
*800 FILLER_0_31_166
*801 FILLER_0_31_169
*802 FILLER_0_31_175
*803 FILLER_0_31_183
*804 FILLER_0_31_27
*805 FILLER_0_31_3
*806 FILLER_0_31_39
*807 FILLER_0_31_52
*808 FILLER_0_31_57
*809 FILLER_0_31_73
*810 FILLER_0_31_95
*811 FILLER_0_32_105
*812 FILLER_0_32_111
*813 FILLER_0_32_113
*814 FILLER_0_32_117
*815 FILLER_0_32_123
*816 FILLER_0_32_129
*817 FILLER_0_32_135
*818 FILLER_0_32_141
*819 FILLER_0_32_15
*820 FILLER_0_32_162
*821 FILLER_0_32_179
*822 FILLER_0_32_193
*823 FILLER_0_32_21
*824 FILLER_0_32_27
*825 FILLER_0_32_29
*826 FILLER_0_32_3
*827 FILLER_0_32_33
*828 FILLER_0_32_39
*829 FILLER_0_32_45
*830 FILLER_0_32_67
*831 FILLER_0_32_88
*832 FILLER_0_32_9
*833 FILLER_0_32_93
*834 FILLER_0_32_99
*835 FILLER_0_3_107
*836 FILLER_0_3_111
*837 FILLER_0_3_113
*838 FILLER_0_3_125
*839 FILLER_0_3_137
*840 FILLER_0_3_149
*841 FILLER_0_3_15
*842 FILLER_0_3_161
*843 FILLER_0_3_167
*844 FILLER_0_3_169
*845 FILLER_0_3_181
*846 FILLER_0_3_193
*847 FILLER_0_3_27
*848 FILLER_0_3_3
*849 FILLER_0_3_39
*850 FILLER_0_3_51
*851 FILLER_0_3_55
*852 FILLER_0_3_57
*853 FILLER_0_3_69
*854 FILLER_0_3_81
*855 FILLER_0_3_90
*856 FILLER_0_3_95
*857 FILLER_0_4_105
*858 FILLER_0_4_125
*859 FILLER_0_4_131
*860 FILLER_0_4_139
*861 FILLER_0_4_141
*862 FILLER_0_4_147
*863 FILLER_0_4_15
*864 FILLER_0_4_159
*865 FILLER_0_4_168
*866 FILLER_0_4_176
*867 FILLER_0_4_182
*868 FILLER_0_4_189
*869 FILLER_0_4_193
*870 FILLER_0_4_27
*871 FILLER_0_4_29
*872 FILLER_0_4_3
*873 FILLER_0_4_41
*874 FILLER_0_4_53
*875 FILLER_0_4_59
*876 FILLER_0_4_66
*877 FILLER_0_4_74
*878 FILLER_0_4_82
*879 FILLER_0_5_110
*880 FILLER_0_5_127
*881 FILLER_0_5_15
*882 FILLER_0_5_158
*883 FILLER_0_5_166
*884 FILLER_0_5_193
*885 FILLER_0_5_21
*886 FILLER_0_5_3
*887 FILLER_0_5_50
*888 FILLER_0_5_93
*889 FILLER_0_6_103
*890 FILLER_0_6_115
*891 FILLER_0_6_119
*892 FILLER_0_6_131
*893 FILLER_0_6_139
*894 FILLER_0_6_144
*895 FILLER_0_6_156
*896 FILLER_0_6_164
*897 FILLER_0_6_168
*898 FILLER_0_6_180
*899 FILLER_0_6_189
*900 FILLER_0_6_193
*901 FILLER_0_6_21
*902 FILLER_0_6_27
*903 FILLER_0_6_29
*904 FILLER_0_6_36
*905 FILLER_0_6_9
*906 FILLER_0_6_92
*907 FILLER_0_6_96
*908 FILLER_0_7_113
*909 FILLER_0_7_125
*910 FILLER_0_7_146
*911 FILLER_0_7_15
*912 FILLER_0_7_158
*913 FILLER_0_7_166
*914 FILLER_0_7_169
*915 FILLER_0_7_193
*916 FILLER_0_7_27
*917 FILLER_0_7_3
*918 FILLER_0_7_39
*919 FILLER_0_7_51
*920 FILLER_0_7_55
*921 FILLER_0_7_57
*922 FILLER_0_7_69
*923 FILLER_0_7_81
*924 FILLER_0_7_89
*925 FILLER_0_8_105
*926 FILLER_0_8_126
*927 FILLER_0_8_138
*928 FILLER_0_8_14
*929 FILLER_0_8_141
*930 FILLER_0_8_173
*931 FILLER_0_8_26
*932 FILLER_0_8_29
*933 FILLER_0_8_3
*934 FILLER_0_8_35
*935 FILLER_0_8_41
*936 FILLER_0_8_85
*937 FILLER_0_8_97
*938 FILLER_0_9_109
*939 FILLER_0_9_11
*940 FILLER_0_9_113
*941 FILLER_0_9_155
*942 FILLER_0_9_167
*943 FILLER_0_9_17
*944 FILLER_0_9_189
*945 FILLER_0_9_193
*946 FILLER_0_9_3
*947 FILLER_0_9_57
*948 PHY_0
*949 PHY_1
*950 PHY_10
*951 PHY_11
*952 PHY_12
*953 PHY_13
*954 PHY_14
*955 PHY_15
*956 PHY_16
*957 PHY_17
*958 PHY_18
*959 PHY_19
*960 PHY_2
*961 PHY_20
*962 PHY_21
*963 PHY_22
*964 PHY_23
*965 PHY_24
*966 PHY_25
*967 PHY_26
*968 PHY_27
*969 PHY_28
*970 PHY_29
*971 PHY_3
*972 PHY_30
*973 PHY_31
*974 PHY_32
*975 PHY_33
*976 PHY_34
*977 PHY_35
*978 PHY_36
*979 PHY_37
*980 PHY_38
*981 PHY_39
*982 PHY_4
*983 PHY_40
*984 PHY_41
*985 PHY_42
*986 PHY_43
*987 PHY_44
*988 PHY_45
*989 PHY_46
*990 PHY_47
*991 PHY_48
*992 PHY_49
*993 PHY_5
*994 PHY_50
*995 PHY_51
*996 PHY_52
*997 PHY_53
*998 PHY_54
*999 PHY_55
*1000 PHY_56
*1001 PHY_57
*1002 PHY_58
*1003 PHY_59
*1004 PHY_6
*1005 PHY_60
*1006 PHY_61
*1007 PHY_62
*1008 PHY_63
*1009 PHY_64
*1010 PHY_65
*1011 PHY_7
*1012 PHY_8
*1013 PHY_9
*1014 TAP_100
*1015 TAP_101
*1016 TAP_102
*1017 TAP_103
*1018 TAP_104
*1019 TAP_105
*1020 TAP_106
*1021 TAP_107
*1022 TAP_108
*1023 TAP_109
*1024 TAP_110
*1025 TAP_111
*1026 TAP_112
*1027 TAP_113
*1028 TAP_114
*1029 TAP_115
*1030 TAP_116
*1031 TAP_117
*1032 TAP_118
*1033 TAP_119
*1034 TAP_120
*1035 TAP_121
*1036 TAP_122
*1037 TAP_123
*1038 TAP_124
*1039 TAP_125
*1040 TAP_126
*1041 TAP_127
*1042 TAP_128
*1043 TAP_129
*1044 TAP_130
*1045 TAP_131
*1046 TAP_132
*1047 TAP_133
*1048 TAP_134
*1049 TAP_135
*1050 TAP_136
*1051 TAP_137
*1052 TAP_138
*1053 TAP_139
*1054 TAP_140
*1055 TAP_141
*1056 TAP_142
*1057 TAP_143
*1058 TAP_144
*1059 TAP_145
*1060 TAP_146
*1061 TAP_147
*1062 TAP_148
*1063 TAP_149
*1064 TAP_150
*1065 TAP_151
*1066 TAP_152
*1067 TAP_153
*1068 TAP_154
*1069 TAP_155
*1070 TAP_156
*1071 TAP_157
*1072 TAP_158
*1073 TAP_159
*1074 TAP_160
*1075 TAP_161
*1076 TAP_162
*1077 TAP_163
*1078 TAP_164
*1079 TAP_165
*1080 TAP_166
*1081 TAP_167
*1082 TAP_168
*1083 TAP_169
*1084 TAP_170
*1085 TAP_66
*1086 TAP_67
*1087 TAP_68
*1088 TAP_69
*1089 TAP_70
*1090 TAP_71
*1091 TAP_72
*1092 TAP_73
*1093 TAP_74
*1094 TAP_75
*1095 TAP_76
*1096 TAP_77
*1097 TAP_78
*1098 TAP_79
*1099 TAP_80
*1100 TAP_81
*1101 TAP_82
*1102 TAP_83
*1103 TAP_84
*1104 TAP_85
*1105 TAP_86
*1106 TAP_87
*1107 TAP_88
*1108 TAP_89
*1109 TAP_90
*1110 TAP_91
*1111 TAP_92
*1112 TAP_93
*1113 TAP_94
*1114 TAP_95
*1115 TAP_96
*1116 TAP_97
*1117 TAP_98
*1118 TAP_99
*1119 _206_
*1120 _207_
*1121 _208_
*1122 _209_
*1123 _210_
*1124 _211_
*1125 _212_
*1126 _213_
*1127 _214_
*1128 _215_
*1129 _216_
*1130 _217_
*1131 _218_
*1132 _219_
*1133 _220_
*1134 _221_
*1135 _222_
*1136 _223_
*1137 _224_
*1138 _225_
*1139 _226_
*1140 _227_
*1141 _228_
*1142 _229_
*1143 _230_
*1144 _231_
*1145 _232_
*1146 _233_
*1147 _234_
*1148 _235_
*1149 _236_
*1150 _237_
*1151 _238_
*1152 _239_
*1153 _240_
*1154 _241_
*1155 _242_
*1156 _243_
*1157 _244_
*1158 _245_
*1159 _246_
*1160 _247_
*1161 _248_
*1162 _249_
*1163 _250_
*1164 _251_
*1165 _252_
*1166 _253_
*1167 _254_
*1168 _255_
*1169 _256_
*1170 _257_
*1171 _258_
*1172 _259_
*1173 _260_
*1174 _261_
*1175 _262_
*1176 _263_
*1177 _264_
*1178 _265_
*1179 _266_
*1180 _267_
*1181 _268_
*1182 _269_
*1183 _270_
*1184 _271_
*1185 _272_
*1186 _273_
*1187 _274_
*1188 _275_
*1189 _276_
*1190 _277_
*1191 _278_
*1192 _279_
*1193 _280_
*1194 _281_
*1195 _282_
*1196 _283_
*1197 _284_
*1198 _285_
*1199 _286_
*1200 _287_
*1201 _288_
*1202 _289_
*1203 _290_
*1204 _291_
*1205 _292_
*1206 _293_
*1207 _294_
*1208 _295_
*1209 _296_
*1210 _297_
*1211 _298_
*1212 _299_
*1213 _300_
*1214 _301_
*1215 _302_
*1216 _303_
*1217 _304_
*1218 _305_
*1219 _306_
*1220 _307_
*1221 _308_
*1222 _309_
*1223 _310_
*1224 _311_
*1225 _312_
*1226 _313_
*1227 _314_
*1228 _315_
*1229 _316_
*1230 _317_
*1231 _318_
*1232 _319_
*1233 _320_
*1234 _321_
*1235 _322_
*1236 _323_
*1237 _324_
*1238 _325_
*1239 _326_
*1240 _327_
*1241 _328_
*1242 _329_
*1243 _330_
*1244 _331_
*1245 _332_
*1246 _333_
*1247 _334_
*1248 _335_
*1249 _336_
*1250 _337_
*1251 _338_
*1252 _339_
*1253 _340_
*1254 _341_
*1255 _342_
*1256 _343_
*1257 _344_
*1258 _345_
*1259 _346_
*1260 _347_
*1261 _348_
*1262 _349_
*1263 _350_
*1264 _351_
*1265 _352_
*1266 _353_
*1267 _354_
*1268 _355_
*1269 _356_
*1270 _357_
*1271 _358_
*1272 _359_
*1273 _360_
*1274 _361_
*1275 _362_
*1276 _363_
*1277 _364_
*1278 _365_
*1279 _366_
*1280 _367_
*1281 _368_
*1282 _369_
*1283 _370_
*1284 _371_
*1285 _372_
*1286 _373_
*1287 _374_
*1288 _375_
*1289 _376_
*1290 _377_
*1291 _378_
*1292 _379_
*1293 _380_
*1294 _381_
*1295 _382_
*1296 _383_
*1297 _384_
*1298 _385_
*1299 _386_
*1300 _387_
*1301 _388_
*1302 _389_
*1303 _390_
*1304 _391_
*1305 _392_
*1306 _393_
*1307 _394_
*1308 _395_
*1309 _396_
*1310 _397_
*1311 _398_
*1312 _399_
*1313 _400_
*1314 _401_
*1315 _402_
*1316 _403_
*1317 _404_
*1318 _405_
*1319 _406_
*1320 _407_
*1321 _408_
*1322 _409_
*1323 _410_
*1324 _411_
*1325 _412_
*1326 _413_
*1327 _414_
*1328 _415_
*1329 _416_
*1330 _417_
*1331 _418_
*1332 _419_
*1333 _420_
*1334 _421_
*1335 _422_
*1336 _423_
*1337 _424_
*1338 _425_
*1339 _426_
*1340 _427_
*1341 _428_
*1342 _429_
*1343 _430_
*1344 _431_
*1345 _432_
*1346 _433_
*1347 _434_
*1348 _435_
*1349 _436_
*1350 _437_
*1351 _438_
*1352 _439_
*1353 _440_
*1354 _441_
*1355 _442_
*1356 _443_
*1357 _444_
*1358 _445_
*1359 _446_
*1360 _447_
*1361 _448_
*1362 _449_
*1363 _450_
*1364 _451_
*1365 _452_
*1366 _453_
*1367 _454_
*1368 _455_
*1369 _456_
*1370 _457_
*1371 _458_
*1372 _459_
*1373 _460_
*1374 _461_
*1375 _462_
*1376 _463_
*1377 _464_
*1378 _465_
*1379 _466_
*1380 _467_
*1381 _468_
*1382 _469_
*1383 _470_
*1384 _471_
*1385 _472_
*1386 _473_
*1387 _474_
*1388 _475_
*1389 _476_
*1390 _477_
*1391 _478_
*1392 _479_
*1393 _480_
*1394 _481_
*1395 _482_
*1396 _483_
*1397 _484_
*1398 _485_
*1399 _486_
*1400 _487_
*1401 _488_
*1402 _489_
*1403 _490_
*1404 _491_
*1405 _492_
*1406 _493_
*1407 _494_
*1408 _495_
*1409 _496_
*1410 _497_
*1411 _498_
*1412 _499_
*1413 _500_
*1414 _501_
*1415 _502_
*1416 _503_
*1417 _504_
*1418 _505_
*1419 _506_
*1420 clkbuf_0_clk
*1421 clkbuf_3_0__f_clk
*1422 clkbuf_3_1__f_clk
*1423 clkbuf_3_2__f_clk
*1424 clkbuf_3_3__f_clk
*1425 clkbuf_3_4__f_clk
*1426 clkbuf_3_5__f_clk
*1427 clkbuf_3_6__f_clk
*1428 clkbuf_3_7__f_clk
*1429 input1
*1430 input10
*1431 input11
*1432 input12
*1433 input13
*1434 input14
*1435 input15
*1436 input16
*1437 input17
*1438 input18
*1439 input19
*1440 input2
*1441 input20
*1442 input21
*1443 input22
*1444 input23
*1445 input24
*1446 input25
*1447 input26
*1448 input27
*1449 input28
*1450 input29
*1451 input3
*1452 input30
*1453 input31
*1454 input32
*1455 input33
*1456 input34
*1457 input4
*1458 input5
*1459 input6
*1460 input7
*1461 input8
*1462 input9
*1463 output35

*PORTS
clk I
p O
rst I
x[0] I
x[10] I
x[11] I
x[12] I
x[13] I
x[14] I
x[15] I
x[16] I
x[17] I
x[18] I
x[19] I
x[1] I
x[20] I
x[21] I
x[22] I
x[23] I
x[24] I
x[25] I
x[26] I
x[27] I
x[28] I
x[29] I
x[2] I
x[30] I
x[31] I
x[3] I
x[4] I
x[5] I
x[6] I
x[7] I
x[8] I
x[9] I
y I

*D_NET *3 0.00623364
*CONN
*P clk I
*I *1420:A I *D sky130_fd_sc_hd__clkbuf_16
*CAP
1 clk 0.00289946
2 *1420:A 0
3 *3:15 0.00289946
4 *3:15 *70:14 0.000238577
5 *3:15 *252:81 0.000177799
6 *3:15 *326:8 1.83408e-05
7 *3:15 *360:26 0
*RES
1 clk *3:15 39.5783 
2 *3:15 *1420:A 23 
*END

*D_NET *4 0.000527006
*CONN
*P p O
*I *1463:X O *D sky130_fd_sc_hd__clkbuf_4
*CAP
1 p 0.000263503
2 *1463:X 0.000263503
*RES
1 *1463:X p 47.1648 
*END

*D_NET *5 0.00153481
*CONN
*P rst I
*I *1429:A I *D sky130_fd_sc_hd__clkbuf_1
*CAP
1 rst 0.000658521
2 *1429:A 0
3 *5:11 0.000658521
4 *5:11 *1266:B 0.000187129
5 *5:11 *227:10 3.06338e-05
*RES
1 rst *5:11 28.7543 
2 *5:11 *1429:A 23 
*END

*D_NET *6 0.00101126
*CONN
*P x[0] I
*I *1440:A I *D sky130_fd_sc_hd__clkbuf_1
*CAP
1 x[0] 0.000505631
2 *1440:A 0.000505631
3 *1440:A *1433:A 0
*RES
1 x[0] *1440:A 49.0821 
*END

*D_NET *7 0.00267465
*CONN
*P x[10] I
*I *1451:A I *D sky130_fd_sc_hd__clkbuf_1
*CAP
1 x[10] 0.000890687
2 *1451:A 0
3 *7:11 0.000890687
4 *7:11 *1188:B 0.000188278
5 *7:11 *1190:A2 5.33072e-05
6 *7:11 *1191:A 0.000140021
7 *7:11 *1201:A 0.000239676
8 *7:11 *1457:A 0
9 *7:11 *37:11 0
10 *7:11 *181:10 6.7177e-06
11 *7:11 *369:8 0.000265277
12 *7:11 *372:10 0
13 *7:11 *377:10 0
*RES
1 x[10] *7:11 35.1964 
2 *7:11 *1451:A 23 
*END

*D_NET *8 0.00101396
*CONN
*P x[11] I
*I *1457:A I *D sky130_fd_sc_hd__clkbuf_1
*CAP
1 x[11] 0.000506978
2 *1457:A 0.000506978
3 *1457:A *9:13 0
4 *1457:A *373:8 0
5 *7:11 *1457:A 0
*RES
1 x[11] *1457:A 49.0821 
*END

*D_NET *9 0.00126509
*CONN
*P x[12] I
*I *1458:A I *D sky130_fd_sc_hd__clkbuf_1
*CAP
1 x[12] 0.000602869
2 *1458:A 0
3 *9:13 0.000602869
4 *9:13 *10:9 0
5 *9:13 *37:11 4.344e-05
6 *9:13 *378:10 1.59094e-05
7 *1457:A *9:13 0
*RES
1 x[12] *9:13 27.8014 
2 *9:13 *1458:A 23 
*END

*D_NET *10 0.00123173
*CONN
*P x[13] I
*I *1459:A I *D sky130_fd_sc_hd__clkbuf_1
*CAP
1 x[13] 0.000584277
2 *1459:A 0
3 *10:9 0.000584277
4 *10:9 *11:9 0
5 *10:9 *373:8 0
6 *10:9 *378:10 5.70007e-05
7 *10:9 *380:12 6.17437e-06
8 *9:13 *10:9 0
*RES
1 x[13] *10:9 27.5114 
2 *10:9 *1459:A 23 
*END

*D_NET *11 0.00115914
*CONN
*P x[14] I
*I *1460:A I *D sky130_fd_sc_hd__clkbuf_1
*CAP
1 x[14] 0.000432766
2 *1460:A 0
3 *11:9 0.000432766
4 *11:9 *12:9 0.000293607
5 *11:9 *380:12 0
6 *10:9 *11:9 0
*RES
1 x[14] *11:9 27.035 
2 *11:9 *1460:A 23 
*END

*D_NET *12 0.0012116
*CONN
*P x[15] I
*I *1461:A I *D sky130_fd_sc_hd__clkbuf_1
*CAP
1 x[15] 0.000444304
2 *1461:A 0
3 *12:9 0.000444304
4 *12:9 *1462:A 0
5 *12:9 *380:12 2.93845e-05
6 *11:9 *12:9 0.000293607
*RES
1 x[15] *12:9 27.035 
2 *12:9 *1461:A 23 
*END

*D_NET *13 0.00107237
*CONN
*P x[16] I
*I *1462:A I *D sky130_fd_sc_hd__clkbuf_1
*CAP
1 x[16] 0.000521494
2 *1462:A 0.000521494
3 *1462:A *1430:A 0
4 *1462:A *381:10 2.93845e-05
5 *12:9 *1462:A 0
*RES
1 x[16] *1462:A 49.0821 
*END

*D_NET *14 0.00101837
*CONN
*P x[17] I
*I *1430:A I *D sky130_fd_sc_hd__clkbuf_1
*CAP
1 x[17] 0.000509184
2 *1430:A 0.000509184
3 *1430:A *1431:A 0
4 *1462:A *1430:A 0
*RES
1 x[17] *1430:A 49.0821 
*END

*D_NET *15 0.00104009
*CONN
*P x[18] I
*I *1431:A I *D sky130_fd_sc_hd__clkbuf_1
*CAP
1 x[18] 0.000520047
2 *1431:A 0.000520047
3 *1431:A *1432:A 0
4 *1430:A *1431:A 0
*RES
1 x[18] *1431:A 49.0821 
*END

*D_NET *16 0.0010621
*CONN
*P x[19] I
*I *1432:A I *D sky130_fd_sc_hd__clkbuf_1
*CAP
1 x[19] 0.000516365
2 *1432:A 0.000516365
3 *1432:A *1434:A 0
4 *1432:A *349:10 2.93747e-05
5 *1431:A *1432:A 0
*RES
1 x[19] *1432:A 49.0821 
*END

*D_NET *17 0.00105979
*CONN
*P x[1] I
*I *1433:A I *D sky130_fd_sc_hd__clkbuf_1
*CAP
1 x[1] 0.000515205
2 *1433:A 0.000515205
3 *1433:A *28:13 0
4 *1433:A *358:8 2.93845e-05
5 *1433:A *358:10 0
6 *1440:A *1433:A 0
*RES
1 x[1] *1433:A 49.0821 
*END

*D_NET *18 0.0010685
*CONN
*P x[20] I
*I *1434:A I *D sky130_fd_sc_hd__clkbuf_1
*CAP
1 x[20] 0.00051956
2 *1434:A 0.00051956
3 *1434:A *1435:A 0
4 *1434:A *350:10 2.93845e-05
5 *1432:A *1434:A 0
*RES
1 x[20] *1434:A 49.0821 
*END

*D_NET *19 0.00111151
*CONN
*P x[21] I
*I *1435:A I *D sky130_fd_sc_hd__clkbuf_1
*CAP
1 x[21] 0.000512108
2 *1435:A 0.000512108
3 *1435:A *1436:A 0
4 *1435:A *350:10 2.93431e-05
5 *1435:A *352:10 5.79559e-05
6 *1434:A *1435:A 0
*RES
1 x[21] *1435:A 49.0821 
*END

*D_NET *20 0.0010043
*CONN
*P x[22] I
*I *1436:A I *D sky130_fd_sc_hd__clkbuf_1
*CAP
1 x[22] 0.000469749
2 *1436:A 0.000469749
3 *1436:A *21:15 0
4 *1436:A *350:10 6.48049e-05
5 *1435:A *1436:A 0
*RES
1 x[22] *1436:A 48.4607 
*END

*D_NET *21 0.0016817
*CONN
*P x[23] I
*I *1437:A I *D sky130_fd_sc_hd__clkbuf_1
*CAP
1 x[23] 0.000530073
2 *1437:A 0
3 *21:15 0.000530073
4 *21:15 *1438:A 0.00041299
5 *21:15 *24:11 0
6 *21:15 *354:14 5.29672e-05
7 *21:15 *356:10 0.000155595
8 *1436:A *21:15 0
*RES
1 x[23] *21:15 30.805 
2 *21:15 *1437:A 23 
*END

*D_NET *22 0.00125245
*CONN
*P x[24] I
*I *1438:A I *D sky130_fd_sc_hd__dlymetal6s2s_1
*CAP
1 x[24] 0.00041973
2 *1438:A 0.00041973
3 *1438:A *23:11 0
4 *1438:A *24:11 0
5 *21:15 *1438:A 0.00041299
*RES
1 x[24] *1438:A 49.8279 
*END

*D_NET *23 0.00132969
*CONN
*P x[25] I
*I *1439:A I *D sky130_fd_sc_hd__clkbuf_1
*CAP
1 x[25] 0.00047031
2 *1439:A 0
3 *23:11 0.00047031
4 *23:11 *24:11 0.000332362
5 *23:11 *354:14 5.67058e-05
6 *1438:A *23:11 0
*RES
1 x[25] *23:11 27.6564 
2 *23:11 *1439:A 23 
*END

*D_NET *24 0.00153789
*CONN
*P x[26] I
*I *1441:A I *D sky130_fd_sc_hd__clkbuf_1
*CAP
1 x[26] 0.000435714
2 *1441:A 0
3 *24:11 0.000435714
4 *24:11 *1442:A 0
5 *24:11 *354:14 9.19179e-05
6 *24:11 *355:10 0.000242181
7 *1438:A *24:11 0
8 *21:15 *24:11 0
9 *23:11 *24:11 0.000332362
*RES
1 x[26] *24:11 28.1329 
2 *24:11 *1441:A 23 
*END

*D_NET *25 0.00111285
*CONN
*P x[27] I
*I *1442:A I *D sky130_fd_sc_hd__dlymetal6s2s_1
*CAP
1 x[27] 0.000528951
2 *1442:A 0.000528951
3 *1442:A *26:13 0
4 *1442:A *354:14 1.79175e-05