*SPEF "ieee 1481-1999"
*DESIGN "buff_chain"
*DATE "11:11:11 Fri 11 11, 1111"
*VENDOR "OpenRCX"
*PROGRAM "Parallel Extraction"
*VERSION "1.0"
*DESIGN_FLOW "NAME_SCOPE LOCAL" "PIN_CAP NONE"
*DIVIDER /
*DELIMITER :
*BUS_DELIMITER []
*T_UNIT 1 NS
*C_UNIT 1 PF
*R_UNIT 1 OHM
*L_UNIT 1 HENRY

*NAME_MAP
*1 CLK
*2 EN
*3 IN
*4 OUT
*7 _00_
*8 _01_
*9 _02_
*10 _03_
*11 _04_
*12 buff1\.Z
*13 buff2\.Z
*14 buff3\.Z
*15 buff4\.Z
*16 net1
*17 net2
*18 FILLER_0_0_109
*19 FILLER_0_0_113
*20 FILLER_0_0_125
*21 FILLER_0_0_137
*22 FILLER_0_0_141
*23 FILLER_0_0_15
*24 FILLER_0_0_153
*25 FILLER_0_0_165
*26 FILLER_0_0_169
*27 FILLER_0_0_181
*28 FILLER_0_0_193
*29 FILLER_0_0_197
*30 FILLER_0_0_209
*31 FILLER_0_0_221
*32 FILLER_0_0_225
*33 FILLER_0_0_237
*34 FILLER_0_0_249
*35 FILLER_0_0_253
*36 FILLER_0_0_265
*37 FILLER_0_0_27
*38 FILLER_0_0_277
*39 FILLER_0_0_281
*40 FILLER_0_0_29
*41 FILLER_0_0_293
*42 FILLER_0_0_3
*43 FILLER_0_0_305
*44 FILLER_0_0_309
*45 FILLER_0_0_321
*46 FILLER_0_0_333
*47 FILLER_0_0_337
*48 FILLER_0_0_349
*49 FILLER_0_0_361
*50 FILLER_0_0_365
*51 FILLER_0_0_377
*52 FILLER_0_0_389
*53 FILLER_0_0_393
*54 FILLER_0_0_405
*55 FILLER_0_0_41
*56 FILLER_0_0_417
*57 FILLER_0_0_421
*58 FILLER_0_0_433
*59 FILLER_0_0_445
*60 FILLER_0_0_449
*61 FILLER_0_0_461
*62 FILLER_0_0_473
*63 FILLER_0_0_477
*64 FILLER_0_0_489
*65 FILLER_0_0_501
*66 FILLER_0_0_505
*67 FILLER_0_0_513
*68 FILLER_0_0_53
*69 FILLER_0_0_57
*70 FILLER_0_0_69
*71 FILLER_0_0_81
*72 FILLER_0_0_85
*73 FILLER_0_0_97
*74 FILLER_0_100_109
*75 FILLER_0_100_121
*76 FILLER_0_100_133
*77 FILLER_0_100_139
*78 FILLER_0_100_141
*79 FILLER_0_100_15
*80 FILLER_0_100_153
*81 FILLER_0_100_165
*82 FILLER_0_100_177
*83 FILLER_0_100_189
*84 FILLER_0_100_195
*85 FILLER_0_100_197
*86 FILLER_0_100_209
*87 FILLER_0_100_221
*88 FILLER_0_100_233
*89 FILLER_0_100_245
*90 FILLER_0_100_251
*91 FILLER_0_100_253
*92 FILLER_0_100_265
*93 FILLER_0_100_27
*94 FILLER_0_100_277
*95 FILLER_0_100_289
*96 FILLER_0_100_29
*97 FILLER_0_100_3
*98 FILLER_0_100_301
*99 FILLER_0_100_307
*100 FILLER_0_100_309
*101 FILLER_0_100_321
*102 FILLER_0_100_333
*103 FILLER_0_100_345
*104 FILLER_0_100_357
*105 FILLER_0_100_363
*106 FILLER_0_100_365
*107 FILLER_0_100_377
*108 FILLER_0_100_389
*109 FILLER_0_100_401
*110 FILLER_0_100_41
*111 FILLER_0_100_413
*112 FILLER_0_100_419
*113 FILLER_0_100_421
*114 FILLER_0_100_433
*115 FILLER_0_100_445
*116 FILLER_0_100_457
*117 FILLER_0_100_469
*118 FILLER_0_100_475
*119 FILLER_0_100_477
*120 FILLER_0_100_489
*121 FILLER_0_100_501
*122 FILLER_0_100_513
*123 FILLER_0_100_53
*124 FILLER_0_100_65
*125 FILLER_0_100_77
*126 FILLER_0_100_83
*127 FILLER_0_100_85
*128 FILLER_0_100_97
*129 FILLER_0_101_109
*130 FILLER_0_101_113
*131 FILLER_0_101_125
*132 FILLER_0_101_137
*133 FILLER_0_101_141
*134 FILLER_0_101_15
*135 FILLER_0_101_153
*136 FILLER_0_101_165
*137 FILLER_0_101_169
*138 FILLER_0_101_181
*139 FILLER_0_101_193
*140 FILLER_0_101_197
*141 FILLER_0_101_209
*142 FILLER_0_101_221
*143 FILLER_0_101_225
*144 FILLER_0_101_237
*145 FILLER_0_101_249
*146 FILLER_0_101_253
*147 FILLER_0_101_259
*148 FILLER_0_101_263
*149 FILLER_0_101_27
*150 FILLER_0_101_275
*151 FILLER_0_101_279
*152 FILLER_0_101_281
*153 FILLER_0_101_29
*154 FILLER_0_101_293
*155 FILLER_0_101_3
*156 FILLER_0_101_305
*157 FILLER_0_101_309
*158 FILLER_0_101_321
*159 FILLER_0_101_333
*160 FILLER_0_101_337
*161 FILLER_0_101_349
*162 FILLER_0_101_361
*163 FILLER_0_101_365
*164 FILLER_0_101_377
*165 FILLER_0_101_389
*166 FILLER_0_101_393
*167 FILLER_0_101_405
*168 FILLER_0_101_41
*169 FILLER_0_101_417
*170 FILLER_0_101_421
*171 FILLER_0_101_433
*172 FILLER_0_101_445
*173 FILLER_0_101_449
*174 FILLER_0_101_461
*175 FILLER_0_101_473
*176 FILLER_0_101_477
*177 FILLER_0_101_489
*178 FILLER_0_101_501
*179 FILLER_0_101_505
*180 FILLER_0_101_513
*181 FILLER_0_101_53
*182 FILLER_0_101_57
*183 FILLER_0_101_69
*184 FILLER_0_101_81
*185 FILLER_0_101_85
*186 FILLER_0_101_97
*187 FILLER_0_10_109
*188 FILLER_0_10_121
*189 FILLER_0_10_133
*190 FILLER_0_10_139
*191 FILLER_0_10_141
*192 FILLER_0_10_15
*193 FILLER_0_10_153
*194 FILLER_0_10_165
*195 FILLER_0_10_177
*196 FILLER_0_10_189
*197 FILLER_0_10_195
*198 FILLER_0_10_197
*199 FILLER_0_10_209
*200 FILLER_0_10_221
*201 FILLER_0_10_233
*202 FILLER_0_10_245
*203 FILLER_0_10_251
*204 FILLER_0_10_253
*205 FILLER_0_10_265
*206 FILLER_0_10_27
*207 FILLER_0_10_277
*208 FILLER_0_10_289
*209 FILLER_0_10_29
*210 FILLER_0_10_3
*211 FILLER_0_10_301
*212 FILLER_0_10_307
*213 FILLER_0_10_309
*214 FILLER_0_10_321
*215 FILLER_0_10_333
*216 FILLER_0_10_345
*217 FILLER_0_10_357
*218 FILLER_0_10_363
*219 FILLER_0_10_365
*220 FILLER_0_10_377
*221 FILLER_0_10_389
*222 FILLER_0_10_401
*223 FILLER_0_10_41
*224 FILLER_0_10_413
*225 FILLER_0_10_419
*226 FILLER_0_10_421
*227 FILLER_0_10_433
*228 FILLER_0_10_445
*229 FILLER_0_10_457
*230 FILLER_0_10_469
*231 FILLER_0_10_475
*232 FILLER_0_10_477
*233 FILLER_0_10_489
*234 FILLER_0_10_501
*235 FILLER_0_10_513
*236 FILLER_0_10_53
*237 FILLER_0_10_65
*238 FILLER_0_10_77
*239 FILLER_0_10_83
*240 FILLER_0_10_85
*241 FILLER_0_10_97
*242 FILLER_0_11_105
*243 FILLER_0_11_111
*244 FILLER_0_11_113
*245 FILLER_0_11_125
*246 FILLER_0_11_137
*247 FILLER_0_11_149
*248 FILLER_0_11_15
*249 FILLER_0_11_161
*250 FILLER_0_11_167
*251 FILLER_0_11_169
*252 FILLER_0_11_181
*253 FILLER_0_11_193
*254 FILLER_0_11_205
*255 FILLER_0_11_217
*256 FILLER_0_11_223
*257 FILLER_0_11_225
*258 FILLER_0_11_237
*259 FILLER_0_11_249
*260 FILLER_0_11_261
*261 FILLER_0_11_27
*262 FILLER_0_11_273
*263 FILLER_0_11_279
*264 FILLER_0_11_281
*265 FILLER_0_11_293
*266 FILLER_0_11_3
*267 FILLER_0_11_305
*268 FILLER_0_11_317
*269 FILLER_0_11_329
*270 FILLER_0_11_335
*271 FILLER_0_11_337
*272 FILLER_0_11_349
*273 FILLER_0_11_361
*274 FILLER_0_11_373
*275 FILLER_0_11_385
*276 FILLER_0_11_39
*277 FILLER_0_11_391
*278 FILLER_0_11_393
*279 FILLER_0_11_405
*280 FILLER_0_11_417
*281 FILLER_0_11_429
*282 FILLER_0_11_441
*283 FILLER_0_11_447
*284 FILLER_0_11_449
*285 FILLER_0_11_461
*286 FILLER_0_11_473
*287 FILLER_0_11_485
*288 FILLER_0_11_497
*289 FILLER_0_11_503
*290 FILLER_0_11_505
*291 FILLER_0_11_51
*292 FILLER_0_11_513
*293 FILLER_0_11_55
*294 FILLER_0_11_57
*295 FILLER_0_11_69
*296 FILLER_0_11_81
*297 FILLER_0_11_93
*298 FILLER_0_12_109
*299 FILLER_0_12_121
*300 FILLER_0_12_133
*301 FILLER_0_12_139
*302 FILLER_0_12_141
*303 FILLER_0_12_15
*304 FILLER_0_12_153
*305 FILLER_0_12_165
*306 FILLER_0_12_177
*307 FILLER_0_12_189
*308 FILLER_0_12_195
*309 FILLER_0_12_197
*310 FILLER_0_12_209
*311 FILLER_0_12_221
*312 FILLER_0_12_233
*313 FILLER_0_12_245
*314 FILLER_0_12_251
*315 FILLER_0_12_253
*316 FILLER_0_12_265
*317 FILLER_0_12_27
*318 FILLER_0_12_277
*319 FILLER_0_12_289
*320 FILLER_0_12_29
*321 FILLER_0_12_3
*322 FILLER_0_12_301
*323 FILLER_0_12_307
*324 FILLER_0_12_309
*325 FILLER_0_12_321
*326 FILLER_0_12_333
*327 FILLER_0_12_345
*328 FILLER_0_12_357
*329 FILLER_0_12_363
*330 FILLER_0_12_365
*331 FILLER_0_12_377
*332 FILLER_0_12_389
*333 FILLER_0_12_401
*334 FILLER_0_12_41
*335 FILLER_0_12_413
*336 FILLER_0_12_419
*337 FILLER_0_12_421
*338 FILLER_0_12_433
*339 FILLER_0_12_445
*340 FILLER_0_12_457
*341 FILLER_0_12_469
*342 FILLER_0_12_475
*343 FILLER_0_12_477
*344 FILLER_0_12_489
*345 FILLER_0_12_501
*346 FILLER_0_12_513
*347 FILLER_0_12_53
*348 FILLER_0_12_65
*349 FILLER_0_12_77
*350 FILLER_0_12_83
*351 FILLER_0_12_85
*352 FILLER_0_12_97
*353 FILLER_0_13_105
*354 FILLER_0_13_111
*355 FILLER_0_13_113
*356 FILLER_0_13_125
*357 FILLER_0_13_137
*358 FILLER_0_13_149
*359 FILLER_0_13_15
*360 FILLER_0_13_161
*361 FILLER_0_13_167
*362 FILLER_0_13_169
*363 FILLER_0_13_181
*364 FILLER_0_13_193
*365 FILLER_0_13_205
*366 FILLER_0_13_217
*367 FILLER_0_13_223
*368 FILLER_0_13_225
*369 FILLER_0_13_237
*370 FILLER_0_13_249
*371 FILLER_0_13_261
*372 FILLER_0_13_27
*373 FILLER_0_13_273
*374 FILLER_0_13_279
*375 FILLER_0_13_281
*376 FILLER_0_13_293
*377 FILLER_0_13_3
*378 FILLER_0_13_305
*379 FILLER_0_13_317
*380 FILLER_0_13_329
*381 FILLER_0_13_335
*382 FILLER_0_13_337
*383 FILLER_0_13_349
*384 FILLER_0_13_361
*385 FILLER_0_13_373
*386 FILLER_0_13_385
*387 FILLER_0_13_39
*388 FILLER_0_13_391
*389 FILLER_0_13_393
*390 FILLER_0_13_405
*391 FILLER_0_13_417
*392 FILLER_0_13_429
*393 FILLER_0_13_441
*394 FILLER_0_13_447
*395 FILLER_0_13_449
*396 FILLER_0_13_461
*397 FILLER_0_13_473
*398 FILLER_0_13_485
*399 FILLER_0_13_497
*400 FILLER_0_13_503
*401 FILLER_0_13_505
*402 FILLER_0_13_51
*403 FILLER_0_13_513
*404 FILLER_0_13_55
*405 FILLER_0_13_57
*406 FILLER_0_13_69
*407 FILLER_0_13_81
*408 FILLER_0_13_93
*409 FILLER_0_14_109
*410 FILLER_0_14_121
*411 FILLER_0_14_133
*412 FILLER_0_14_139
*413 FILLER_0_14_141
*414 FILLER_0_14_15
*415 FILLER_0_14_153
*416 FILLER_0_14_165
*417 FILLER_0_14_177
*418 FILLER_0_14_189
*419 FILLER_0_14_195
*420 FILLER_0_14_197
*421 FILLER_0_14_209
*422 FILLER_0_14_221
*423 FILLER_0_14_233
*424 FILLER_0_14_245
*425 FILLER_0_14_251
*426 FILLER_0_14_253
*427 FILLER_0_14_265
*428 FILLER_0_14_27
*429 FILLER_0_14_277
*430 FILLER_0_14_289
*431 FILLER_0_14_29
*432 FILLER_0_14_3
*433 FILLER_0_14_301
*434 FILLER_0_14_307
*435 FILLER_0_14_309
*436 FILLER_0_14_321
*437 FILLER_0_14_333
*438 FILLER_0_14_345
*439 FILLER_0_14_357
*440 FILLER_0_14_363
*441 FILLER_0_14_365
*442 FILLER_0_14_377
*443 FILLER_0_14_389
*444 FILLER_0_14_401
*445 FILLER_0_14_41
*446 FILLER_0_14_413
*447 FILLER_0_14_419
*448 FILLER_0_14_421
*449 FILLER_0_14_433
*450 FILLER_0_14_445
*451 FILLER_0_14_457
*452 FILLER_0_14_469
*453 FILLER_0_14_475
*454 FILLER_0_14_477
*455 FILLER_0_14_489
*456 FILLER_0_14_501
*457 FILLER_0_14_513
*458 FILLER_0_14_53
*459 FILLER_0_14_65
*460 FILLER_0_14_77
*461 FILLER_0_14_83
*462 FILLER_0_14_85
*463 FILLER_0_14_97
*464 FILLER_0_15_105
*465 FILLER_0_15_111
*466 FILLER_0_15_113
*467 FILLER_0_15_125
*468 FILLER_0_15_137
*469 FILLER_0_15_149
*470 FILLER_0_15_15
*471 FILLER_0_15_161
*472 FILLER_0_15_167
*473 FILLER_0_15_169
*474 FILLER_0_15_181
*475 FILLER_0_15_193
*476 FILLER_0_15_205
*477 FILLER_0_15_217
*478 FILLER_0_15_223
*479 FILLER_0_15_225
*480 FILLER_0_15_237
*481 FILLER_0_15_249
*482 FILLER_0_15_261
*483 FILLER_0_15_27
*484 FILLER_0_15_273
*485 FILLER_0_15_279
*486 FILLER_0_15_281
*487 FILLER_0_15_293
*488 FILLER_0_15_3
*489 FILLER_0_15_305
*490 FILLER_0_15_317
*491 FILLER_0_15_329
*492 FILLER_0_15_335
*493 FILLER_0_15_337
*494 FILLER_0_15_349
*495 FILLER_0_15_361
*496 FILLER_0_15_373
*497 FILLER_0_15_385
*498 FILLER_0_15_39
*499 FILLER_0_15_391
*500 FILLER_0_15_393
*501 FILLER_0_15_405
*502 FILLER_0_15_417
*503 FILLER_0_15_429
*504 FILLER_0_15_441
*505 FILLER_0_15_447
*506 FILLER_0_15_449
*507 FILLER_0_15_461
*508 FILLER_0_15_473
*509 FILLER_0_15_485
*510 FILLER_0_15_497
*511 FILLER_0_15_503
*512 FILLER_0_15_505
*513 FILLER_0_15_51
*514 FILLER_0_15_513
*515 FILLER_0_15_55
*516 FILLER_0_15_57
*517 FILLER_0_15_69
*518 FILLER_0_15_81
*519 FILLER_0_15_93
*520 FILLER_0_16_109
*521 FILLER_0_16_121
*522 FILLER_0_16_133
*523 FILLER_0_16_139
*524 FILLER_0_16_141
*525 FILLER_0_16_15
*526 FILLER_0_16_153
*527 FILLER_0_16_165
*528 FILLER_0_16_177
*529 FILLER_0_16_189
*530 FILLER_0_16_195
*531 FILLER_0_16_197
*532 FILLER_0_16_209
*533 FILLER_0_16_221
*534 FILLER_0_16_233
*535 FILLER_0_16_245
*536 FILLER_0_16_251
*537 FILLER_0_16_253
*538 FILLER_0_16_265
*539 FILLER_0_16_27
*540 FILLER_0_16_277
*541 FILLER_0_16_289
*542 FILLER_0_16_29
*543 FILLER_0_16_3
*544 FILLER_0_16_301
*545 FILLER_0_16_307
*546 FILLER_0_16_309
*547 FILLER_0_16_321
*548 FILLER_0_16_333
*549 FILLER_0_16_345
*550 FILLER_0_16_357
*551 FILLER_0_16_363
*552 FILLER_0_16_365
*553 FILLER_0_16_377
*554 FILLER_0_16_389
*555 FILLER_0_16_401
*556 FILLER_0_16_41
*557 FILLER_0_16_413
*558 FILLER_0_16_419
*559 FILLER_0_16_421
*560 FILLER_0_16_433
*561 FILLER_0_16_445
*562 FILLER_0_16_457
*563 FILLER_0_16_469
*564 FILLER_0_16_475
*565 FILLER_0_16_477
*566 FILLER_0_16_489
*567 FILLER_0_16_501
*568 FILLER_0_16_513
*569 FILLER_0_16_53
*570 FILLER_0_16_65
*571 FILLER_0_16_77
*572 FILLER_0_16_83
*573 FILLER_0_16_85
*574 FILLER_0_16_97
*575 FILLER_0_17_105
*576 FILLER_0_17_111
*577 FILLER_0_17_113
*578 FILLER_0_17_125
*579 FILLER_0_17_137
*580 FILLER_0_17_149
*581 FILLER_0_17_15
*582 FILLER_0_17_161
*583 FILLER_0_17_167
*584 FILLER_0_17_169
*585 FILLER_0_17_181
*586 FILLER_0_17_193
*587 FILLER_0_17_205
*588 FILLER_0_17_217
*589 FILLER_0_17_223
*590 FILLER_0_17_225
*591 FILLER_0_17_237
*592 FILLER_0_17_249
*593 FILLER_0_17_261
*594 FILLER_0_17_27
*595 FILLER_0_17_273
*596 FILLER_0_17_279
*597 FILLER_0_17_281
*598 FILLER_0_17_293
*599 FILLER_0_17_3
*600 FILLER_0_17_305
*601 FILLER_0_17_317
*602 FILLER_0_17_329
*603 FILLER_0_17_335
*604 FILLER_0_17_337
*605 FILLER_0_17_349
*606 FILLER_0_17_361
*607 FILLER_0_17_373
*608 FILLER_0_17_385
*609 FILLER_0_17_39
*610 FILLER_0_17_391
*611 FILLER_0_17_393
*612 FILLER_0_17_405
*613 FILLER_0_17_417
*614 FILLER_0_17_429
*615 FILLER_0_17_441
*616 FILLER_0_17_447
*617 FILLER_0_17_449
*618 FILLER_0_17_461
*619 FILLER_0_17_473
*620 FILLER_0_17_485
*621 FILLER_0_17_497
*622 FILLER_0_17_503
*623 FILLER_0_17_505
*624 FILLER_0_17_51
*625 FILLER_0_17_513
*626 FILLER_0_17_55
*627 FILLER_0_17_57
*628 FILLER_0_17_69
*629 FILLER_0_17_81
*630 FILLER_0_17_93
*631 FILLER_0_18_109
*632 FILLER_0_18_121
*633 FILLER_0_18_133
*634 FILLER_0_18_139
*635 FILLER_0_18_141
*636 FILLER_0_18_15
*637 FILLER_0_18_153
*638 FILLER_0_18_165
*639 FILLER_0_18_177
*640 FILLER_0_18_189
*641 FILLER_0_18_195
*642 FILLER_0_18_197
*643 FILLER_0_18_209
*644 FILLER_0_18_221
*645 FILLER_0_18_233
*646 FILLER_0_18_245
*647 FILLER_0_18_251
*648 FILLER_0_18_253
*649 FILLER_0_18_265
*650 FILLER_0_18_27
*651 FILLER_0_18_277
*652 FILLER_0_18_289
*653 FILLER_0_18_29
*654 FILLER_0_18_3
*655 FILLER_0_18_301
*656 FILLER_0_18_307
*657 FILLER_0_18_309
*658 FILLER_0_18_321
*659 FILLER_0_18_333
*660 FILLER_0_18_345
*661 FILLER_0_18_357
*662 FILLER_0_18_363
*663 FILLER_0_18_365
*664 FILLER_0_18_377
*665 FILLER_0_18_389
*666 FILLER_0_18_401
*667 FILLER_0_18_41
*668 FILLER_0_18_413
*669 FILLER_0_18_419
*670 FILLER_0_18_421
*671 FILLER_0_18_433
*672 FILLER_0_18_445
*673 FILLER_0_18_457
*674 FILLER_0_18_469
*675 FILLER_0_18_475
*676 FILLER_0_18_477
*677 FILLER_0_18_489
*678 FILLER_0_18_501
*679 FILLER_0_18_513
*680 FILLER_0_18_53
*681 FILLER_0_18_65
*682 FILLER_0_18_77
*683 FILLER_0_18_83
*684 FILLER_0_18_85
*685 FILLER_0_18_97
*686 FILLER_0_19_105
*687 FILLER_0_19_111
*688 FILLER_0_19_113
*689 FILLER_0_19_125
*690 FILLER_0_19_137
*691 FILLER_0_19_149
*692 FILLER_0_19_15
*693 FILLER_0_19_161
*694 FILLER_0_19_167
*695 FILLER_0_19_169
*696 FILLER_0_19_181
*697 FILLER_0_19_193
*698 FILLER_0_19_205
*699 FILLER_0_19_217
*700 FILLER_0_19_223
*701 FILLER_0_19_225
*702 FILLER_0_19_237
*703 FILLER_0_19_249
*704 FILLER_0_19_261
*705 FILLER_0_19_27
*706 FILLER_0_19_273
*707 FILLER_0_19_279
*708 FILLER_0_19_281
*709 FILLER_0_19_293
*710 FILLER_0_19_3
*711 FILLER_0_19_305
*712 FILLER_0_19_317
*713 FILLER_0_19_329
*714 FILLER_0_19_335
*715 FILLER_0_19_337
*716 FILLER_0_19_349
*717 FILLER_0_19_361
*718 FILLER_0_19_373
*719 FILLER_0_19_385
*720 FILLER_0_19_39
*721 FILLER_0_19_391
*722 FILLER_0_19_393
*723 FILLER_0_19_405
*724 FILLER_0_19_417
*725 FILLER_0_19_429
*726 FILLER_0_19_441
*727 FILLER_0_19_447
*728 FILLER_0_19_449
*729 FILLER_0_19_461
*730 FILLER_0_19_473
*731 FILLER_0_19_485
*732 FILLER_0_19_497
*733 FILLER_0_19_503
*734 FILLER_0_19_505
*735 FILLER_0_19_51
*736 FILLER_0_19_513
*737 FILLER_0_19_55
*738 FILLER_0_19_57
*739 FILLER_0_19_69
*740 FILLER_0_19_81
*741 FILLER_0_19_93
*742 FILLER_0_1_105
*743 FILLER_0_1_111
*744 FILLER_0_1_113
*745 FILLER_0_1_125
*746 FILLER_0_1_137
*747 FILLER_0_1_149
*748 FILLER_0_1_15
*749 FILLER_0_1_161
*750 FILLER_0_1_167
*751 FILLER_0_1_169
*752 FILLER_0_1_181
*753 FILLER_0_1_193
*754 FILLER_0_1_205
*755 FILLER_0_1_217
*756 FILLER_0_1_223
*757 FILLER_0_1_225
*758 FILLER_0_1_237
*759 FILLER_0_1_249
*760 FILLER_0_1_261
*761 FILLER_0_1_27
*762 FILLER_0_1_273
*763 FILLER_0_1_279
*764 FILLER_0_1_281
*765 FILLER_0_1_293
*766 FILLER_0_1_3
*767 FILLER_0_1_305
*768 FILLER_0_1_317
*769 FILLER_0_1_329
*770 FILLER_0_1_335
*771 FILLER_0_1_337
*772 FILLER_0_1_349
*773 FILLER_0_1_361
*774 FILLER_0_1_373
*775 FILLER_0_1_385
*776 FILLER_0_1_39
*777 FILLER_0_1_391
*778 FILLER_0_1_393
*779 FILLER_0_1_405
*780 FILLER_0_1_417
*781 FILLER_0_1_429
*782 FILLER_0_1_441
*783 FILLER_0_1_447
*784 FILLER_0_1_449
*785 FILLER_0_1_461
*786 FILLER_0_1_473
*787 FILLER_0_1_485
*788 FILLER_0_1_497
*789 FILLER_0_1_503
*790 FILLER_0_1_505
*791 FILLER_0_1_51
*792 FILLER_0_1_513
*793 FILLER_0_1_55
*794 FILLER_0_1_57
*795 FILLER_0_1_69
*796 FILLER_0_1_81
*797 FILLER_0_1_93
*798 FILLER_0_20_109
*799 FILLER_0_20_121
*800 FILLER_0_20_133
*801 FILLER_0_20_139
*802 FILLER_0_20_141
*803 FILLER_0_20_15
*804 FILLER_0_20_153
*805 FILLER_0_20_165
*806 FILLER_0_20_177
*807 FILLER_0_20_189
*808 FILLER_0_20_195
*809 FILLER_0_20_197
*810 FILLER_0_20_209
*811 FILLER_0_20_221
*812 FILLER_0_20_233
*813 FILLER_0_20_245
*814 FILLER_0_20_251
*815 FILLER_0_20_253
*816 FILLER_0_20_265
*817 FILLER_0_20_27
*818 FILLER_0_20_277
*819 FILLER_0_20_289
*820 FILLER_0_20_29
*821 FILLER_0_20_3
*822 FILLER_0_20_301
*823 FILLER_0_20_307
*824 FILLER_0_20_309
*825 FILLER_0_20_321
*826 FILLER_0_20_333
*827 FILLER_0_20_345
*828 FILLER_0_20_357
*829 FILLER_0_20_363
*830 FILLER_0_20_365
*831 FILLER_0_20_377
*832 FILLER_0_20_389
*833 FILLER_0_20_401
*834 FILLER_0_20_41
*835 FILLER_0_20_413
*836 FILLER_0_20_419
*837 FILLER_0_20_421
*838 FILLER_0_20_433
*839 FILLER_0_20_445
*840 FILLER_0_20_457
*841 FILLER_0_20_469
*842 FILLER_0_20_475
*843 FILLER_0_20_477
*844 FILLER_0_20_489
*845 FILLER_0_20_501
*846 FILLER_0_20_513
*847 FILLER_0_20_53
*848 FILLER_0_20_65
*849 FILLER_0_20_77
*850 FILLER_0_20_83
*851 FILLER_0_20_85
*852 FILLER_0_20_97
*853 FILLER_0_21_105
*854 FILLER_0_21_111
*855 FILLER_0_21_113
*856 FILLER_0_21_125
*857 FILLER_0_21_137
*858 FILLER_0_21_149
*859 FILLER_0_21_15
*860 FILLER_0_21_161
*861 FILLER_0_21_167
*862 FILLER_0_21_169
*863 FILLER_0_21_181
*864 FILLER_0_21_193
*865 FILLER_0_21_205
*866 FILLER_0_21_217
*867 FILLER_0_21_223
*868 FILLER_0_21_225
*869 FILLER_0_21_237
*870 FILLER_0_21_249
*871 FILLER_0_21_261
*872 FILLER_0_21_27
*873 FILLER_0_21_273
*874 FILLER_0_21_279
*875 FILLER_0_21_281
*876 FILLER_0_21_293
*877 FILLER_0_21_3
*878 FILLER_0_21_305
*879 FILLER_0_21_317
*880 FILLER_0_21_329
*881 FILLER_0_21_335
*882 FILLER_0_21_337
*883 FILLER_0_21_349
*884 FILLER_0_21_361
*885 FILLER_0_21_373
*886 FILLER_0_21_385
*887 FILLER_0_21_39
*888 FILLER_0_21_391
*889 FILLER_0_21_393
*890 FILLER_0_21_405
*891 FILLER_0_21_417
*892 FILLER_0_21_429
*893 FILLER_0_21_441
*894 FILLER_0_21_447
*895 FILLER_0_21_449
*896 FILLER_0_21_461
*897 FILLER_0_21_473
*898 FILLER_0_21_485
*899 FILLER_0_21_497
*900 FILLER_0_21_503
*901 FILLER_0_21_505
*902 FILLER_0_21_51
*903 FILLER_0_21_513
*904 FILLER_0_21_55
*905 FILLER_0_21_57
*906 FILLER_0_21_69
*907 FILLER_0_21_81
*908 FILLER_0_21_93
*909 FILLER_0_22_109
*910 FILLER_0_22_121
*911 FILLER_0_22_133
*912 FILLER_0_22_139
*913 FILLER_0_22_141
*914 FILLER_0_22_15
*915 FILLER_0_22_153
*916 FILLER_0_22_165
*917 FILLER_0_22_177
*918 FILLER_0_22_189
*919 FILLER_0_22_195
*920 FILLER_0_22_197
*921 FILLER_0_22_209
*922 FILLER_0_22_221
*923 FILLER_0_22_233
*924 FILLER_0_22_245
*925 FILLER_0_22_251
*926 FILLER_0_22_253
*927 FILLER_0_22_265
*928 FILLER_0_22_27
*929 FILLER_0_22_277
*930 FILLER_0_22_289
*931 FILLER_0_22_29
*932 FILLER_0_22_3
*933 FILLER_0_22_301
*934 FILLER_0_22_307
*935 FILLER_0_22_309
*936 FILLER_0_22_321
*937 FILLER_0_22_333
*938 FILLER_0_22_345
*939 FILLER_0_22_357
*940 FILLER_0_22_363
*941 FILLER_0_22_365
*942 FILLER_0_22_377
*943 FILLER_0_22_389
*944 FILLER_0_22_401
*945 FILLER_0_22_41
*946 FILLER_0_22_413
*947 FILLER_0_22_419
*948 FILLER_0_22_421
*949 FILLER_0_22_433
*950 FILLER_0_22_445
*951 FILLER_0_22_457
*952 FILLER_0_22_469
*953 FILLER_0_22_475
*954 FILLER_0_22_477
*955 FILLER_0_22_489
*956 FILLER_0_22_501
*957 FILLER_0_22_513
*958 FILLER_0_22_53
*959 FILLER_0_22_65
*960 FILLER_0_22_77
*961 FILLER_0_22_83
*962 FILLER_0_22_85
*963 FILLER_0_22_97
*964 FILLER_0_23_105
*965 FILLER_0_23_111
*966 FILLER_0_23_113
*967 FILLER_0_23_125
*968 FILLER_0_23_137
*969 FILLER_0_23_149
*970 FILLER_0_23_15
*971 FILLER_0_23_161
*972 FILLER_0_23_167
*973 FILLER_0_23_169
*974 FILLER_0_23_181
*975 FILLER_0_23_193
*976 FILLER_0_23_205
*977 FILLER_0_23_217
*978 FILLER_0_23_223
*979 FILLER_0_23_225
*980 FILLER_0_23_237
*981 FILLER_0_23_249
*982 FILLER_0_23_261
*983 FILLER_0_23_27
*984 FILLER_0_23_273
*985 FILLER_0_23_279
*986 FILLER_0_23_281
*987 FILLER_0_23_293
*988 FILLER_0_23_3
*989 FILLER_0_23_305
*990 FILLER_0_23_317
*991 FILLER_0_23_329
*992 FILLER_0_23_335
*993 FILLER_0_23_337
*994 FILLER_0_23_349
*995 FILLER_0_23_361
*996 FILLER_0_23_373
*997 FILLER_0_23_385
*998 FILLER_0_23_39
*999 FILLER_0_23_391
*1000 FILLER_0_23_393
*1001 FILLER_0_23_405
*1002 FILLER_0_23_417
*1003 FILLER_0_23_429
*1004 FILLER_0_23_441
*1005 FILLER_0_23_447
*1006 FILLER_0_23_449
*1007 FILLER_0_23_461
*1008 FILLER_0_23_473
*1009 FILLER_0_23_485
*1010 FILLER_0_23_497
*1011 FILLER_0_23_503
*1012 FILLER_0_23_505
*1013 FILLER_0_23_51
*1014 FILLER_0_23_513
*1015 FILLER_0_23_55
*1016 FILLER_0_23_57
*1017 FILLER_0_23_69
*1018 FILLER_0_23_81
*1019 FILLER_0_23_93
*1020 FILLER_0_24_109
*1021 FILLER_0_24_121
*1022 FILLER_0_24_133
*1023 FILLER_0_24_139
*1024 FILLER_0_24_141
*1025 FILLER_0_24_15
*1026 FILLER_0_24_153
*1027 FILLER_0_24_165
*1028 FILLER_0_24_177
*1029 FILLER_0_24_189
*1030 FILLER_0_24_195
*1031 FILLER_0_24_197
*1032 FILLER_0_24_209
*1033 FILLER_0_24_221
*1034 FILLER_0_24_233
*1035 FILLER_0_24_245
*1036 FILLER_0_24_251
*1037 FILLER_0_24_253
*1038 FILLER_0_24_265
*1039 FILLER_0_24_27
*1040 FILLER_0_24_277
*1041 FILLER_0_24_289
*1042 FILLER_0_24_29
*1043 FILLER_0_24_3
*1044 FILLER_0_24_301
*1045 FILLER_0_24_307
*1046 FILLER_0_24_309
*1047 FILLER_0_24_321
*1048 FILLER_0_24_333
*1049 FILLER_0_24_345
*1050 FILLER_0_24_357
*1051 FILLER_0_24_363
*1052 FILLER_0_24_365
*1053 FILLER_0_24_377
*1054 FILLER_0_24_389
*1055 FILLER_0_24_401
*1056 FILLER_0_24_41
*1057 FILLER_0_24_413
*1058 FILLER_0_24_419
*1059 FILLER_0_24_421
*1060 FILLER_0_24_433
*1061 FILLER_0_24_445
*1062 FILLER_0_24_457
*1063 FILLER_0_24_469
*1064 FILLER_0_24_475
*1065 FILLER_0_24_477
*1066 FILLER_0_24_489
*1067 FILLER_0_24_501
*1068 FILLER_0_24_513
*1069 FILLER_0_24_53
*1070 FILLER_0_24_65
*1071 FILLER_0_24_77
*1072 FILLER_0_24_83
*1073 FILLER_0_24_85
*1074 FILLER_0_24_97
*1075 FILLER_0_25_105
*1076 FILLER_0_25_111
*1077 FILLER_0_25_113
*1078 FILLER_0_25_125
*1079 FILLER_0_25_137
*1080 FILLER_0_25_149
*1081 FILLER_0_25_15
*1082 FILLER_0_25_161
*1083 FILLER_0_25_167
*1084 FILLER_0_25_169
*1085 FILLER_0_25_181
*1086 FILLER_0_25_193
*1087 FILLER_0_25_205
*1088 FILLER_0_25_217
*1089 FILLER_0_25_223
*1090 FILLER_0_25_225
*1091 FILLER_0_25_237
*1092 FILLER_0_25_249
*1093 FILLER_0_25_261
*1094 FILLER_0_25_27
*1095 FILLER_0_25_273
*1096 FILLER_0_25_279
*1097 FILLER_0_25_281
*1098 FILLER_0_25_293
*1099 FILLER_0_25_3
*1100 FILLER_0_25_305
*1101 FILLER_0_25_317
*1102 FILLER_0_25_329
*1103 FILLER_0_25_335
*1104 FILLER_0_25_337
*1105 FILLER_0_25_349
*1106 FILLER_0_25_361
*1107 FILLER_0_25_373
*1108 FILLER_0_25_385
*1109 FILLER_0_25_39
*1110 FILLER_0_25_391
*1111 FILLER_0_25_393
*1112 FILLER_0_25_405
*1113 FILLER_0_25_417
*1114 FILLER_0_25_429
*1115 FILLER_0_25_441
*1116 FILLER_0_25_447
*1117 FILLER_0_25_449
*1118 FILLER_0_25_461
*1119 FILLER_0_25_473
*1120 FILLER_0_25_485
*1121 FILLER_0_25_497
*1122 FILLER_0_25_503
*1123 FILLER_0_25_505
*1124 FILLER_0_25_51
*1125 FILLER_0_25_513
*1126 FILLER_0_25_55
*1127 FILLER_0_25_57
*1128 FILLER_0_25_69
*1129 FILLER_0_25_81
*1130 FILLER_0_25_93
*1131 FILLER_0_26_109
*1132 FILLER_0_26_121
*1133 FILLER_0_26_133
*1134 FILLER_0_26_139
*1135 FILLER_0_26_141
*1136 FILLER_0_26_15
*1137 FILLER_0_26_153
*1138 FILLER_0_26_165
*1139 FILLER_0_26_177
*1140 FILLER_0_26_189
*1141 FILLER_0_26_195
*1142 FILLER_0_26_197
*1143 FILLER_0_26_209
*1144 FILLER_0_26_221
*1145 FILLER_0_26_233
*1146 FILLER_0_26_245
*1147 FILLER_0_26_251
*1148 FILLER_0_26_253
*1149 FILLER_0_26_265
*1150 FILLER_0_26_27
*1151 FILLER_0_26_277
*1152 FILLER_0_26_289
*1153 FILLER_0_26_29
*1154 FILLER_0_26_3
*1155 FILLER_0_26_301
*1156 FILLER_0_26_307
*1157 FILLER_0_26_309
*1158 FILLER_0_26_321
*1159 FILLER_0_26_333
*1160 FILLER_0_26_345
*1161 FILLER_0_26_357
*1162 FILLER_0_26_363
*1163 FILLER_0_26_365
*1164 FILLER_0_26_377
*1165 FILLER_0_26_389
*1166 FILLER_0_26_401
*1167 FILLER_0_26_41
*1168 FILLER_0_26_413
*1169 FILLER_0_26_419
*1170 FILLER_0_26_421
*1171 FILLER_0_26_433
*1172 FILLER_0_26_445
*1173 FILLER_0_26_457
*1174 FILLER_0_26_469
*1175 FILLER_0_26_475
*1176 FILLER_0_26_477
*1177 FILLER_0_26_489
*1178 FILLER_0_26_501
*1179 FILLER_0_26_513
*1180 FILLER_0_26_53
*1181 FILLER_0_26_65
*1182 FILLER_0_26_77
*1183 FILLER_0_26_83
*1184 FILLER_0_26_85
*1185 FILLER_0_26_97
*1186 FILLER_0_27_105
*1187 FILLER_0_27_111
*1188 FILLER_0_27_113
*1189 FILLER_0_27_125
*1190 FILLER_0_27_137
*1191 FILLER_0_27_149
*1192 FILLER_0_27_15
*1193 FILLER_0_27_161
*1194 FILLER_0_27_167
*1195 FILLER_0_27_169
*1196 FILLER_0_27_181
*1197 FILLER_0_27_193
*1198 FILLER_0_27_205
*1199 FILLER_0_27_217
*1200 FILLER_0_27_223
*1201 FILLER_0_27_225
*1202 FILLER_0_27_237
*1203 FILLER_0_27_249
*1204 FILLER_0_27_261
*1205 FILLER_0_27_27
*1206 FILLER_0_27_273
*1207 FILLER_0_27_279
*1208 FILLER_0_27_281
*1209 FILLER_0_27_293
*1210 FILLER_0_27_3
*1211 FILLER_0_27_305
*1212 FILLER_0_27_317
*1213 FILLER_0_27_329
*1214 FILLER_0_27_335
*1215 FILLER_0_27_337
*1216 FILLER_0_27_349
*1217 FILLER_0_27_361
*1218 FILLER_0_27_373
*1219 FILLER_0_27_385
*1220 FILLER_0_27_39
*1221 FILLER_0_27_391
*1222 FILLER_0_27_393
*1223 FILLER_0_27_405
*1224 FILLER_0_27_417
*1225 FILLER_0_27_429
*1226 FILLER_0_27_441
*1227 FILLER_0_27_447
*1228 FILLER_0_27_449
*1229 FILLER_0_27_461
*1230 FILLER_0_27_473
*1231 FILLER_0_27_485
*1232 FILLER_0_27_497
*1233 FILLER_0_27_503
*1234 FILLER_0_27_505
*1235 FILLER_0_27_51
*1236 FILLER_0_27_513
*1237 FILLER_0_27_55
*1238 FILLER_0_27_57
*1239 FILLER_0_27_69
*1240 FILLER_0_27_81
*1241 FILLER_0_27_93
*1242 FILLER_0_28_109
*1243 FILLER_0_28_121
*1244 FILLER_0_28_133
*1245 FILLER_0_28_139
*1246 FILLER_0_28_141
*1247 FILLER_0_28_15
*1248 FILLER_0_28_153
*1249 FILLER_0_28_165
*1250 FILLER_0_28_177
*1251 FILLER_0_28_189
*1252 FILLER_0_28_195
*1253 FILLER_0_28_197
*1254 FILLER_0_28_209
*1255 FILLER_0_28_221
*1256 FILLER_0_28_233
*1257 FILLER_0_28_245
*1258 FILLER_0_28_251
*1259 FILLER_0_28_253
*1260 FILLER_0_28_265
*1261 FILLER_0_28_27
*1262 FILLER_0_28_277
*1263 FILLER_0_28_289
*1264 FILLER_0_28_29
*1265 FILLER_0_28_3
*1266 FILLER_0_28_301
*1267 FILLER_0_28_307
*1268 FILLER_0_28_309
*1269 FILLER_0_28_321
*1270 FILLER_0_28_333
*1271 FILLER_0_28_345
*1272 FILLER_0_28_357
*1273 FILLER_0_28_363
*1274 FILLER_0_28_365
*1275 FILLER_0_28_377
*1276 FILLER_0_28_389
*1277 FILLER_0_28_401
*1278 FILLER_0_28_41
*1279 FILLER_0_28_413
*1280 FILLER_0_28_419
*1281 FILLER_0_28_421
*1282 FILLER_0_28_433
*1283 FILLER_0_28_445
*1284 FILLER_0_28_457
*1285 FILLER_0_28_469
*1286 FILLER_0_28_475
*1287 FILLER_0_28_477
*1288 FILLER_0_28_489
*1289 FILLER_0_28_501
*1290 FILLER_0_28_513
*1291 FILLER_0_28_53
*1292 FILLER_0_28_65
*1293 FILLER_0_28_77
*1294 FILLER_0_28_83
*1295 FILLER_0_28_85
*1296 FILLER_0_28_97
*1297 FILLER_0_29_105
*1298 FILLER_0_29_111
*1299 FILLER_0_29_113
*1300 FILLER_0_29_125
*1301 FILLER_0_29_137
*1302 FILLER_0_29_149
*1303 FILLER_0_29_15
*1304 FILLER_0_29_161
*1305 FILLER_0_29_167
*1306 FILLER_0_29_169
*1307 FILLER_0_29_181
*1308 FILLER_0_29_193
*1309 FILLER_0_29_205
*1310 FILLER_0_29_217
*1311 FILLER_0_29_223
*1312 FILLER_0_29_225
*1313 FILLER_0_29_237
*1314 FILLER_0_29_249
*1315 FILLER_0_29_261
*1316 FILLER_0_29_27
*1317 FILLER_0_29_273
*1318 FILLER_0_29_279
*1319 FILLER_0_29_281
*1320 FILLER_0_29_293
*1321 FILLER_0_29_3
*1322 FILLER_0_29_305
*1323 FILLER_0_29_317
*1324 FILLER_0_29_329
*1325 FILLER_0_29_335
*1326 FILLER_0_29_337
*1327 FILLER_0_29_349
*1328 FILLER_0_29_361
*1329 FILLER_0_29_373
*1330 FILLER_0_29_385
*1331 FILLER_0_29_39
*1332 FILLER_0_29_391
*1333 FILLER_0_29_393
*1334 FILLER_0_29_405
*1335 FILLER_0_29_417
*1336 FILLER_0_29_429
*1337 FILLER_0_29_441
*1338 FILLER_0_29_447
*1339 FILLER_0_29_449
*1340 FILLER_0_29_461
*1341 FILLER_0_29_473
*1342 FILLER_0_29_485
*1343 FILLER_0_29_497
*1344 FILLER_0_29_503
*1345 FILLER_0_29_505
*1346 FILLER_0_29_51
*1347 FILLER_0_29_513
*1348 FILLER_0_29_55
*1349 FILLER_0_29_57
*1350 FILLER_0_29_69
*1351 FILLER_0_29_81
*1352 FILLER_0_29_93
*1353 FILLER_0_2_109
*1354 FILLER_0_2_121
*1355 FILLER_0_2_133
*1356 FILLER_0_2_139
*1357 FILLER_0_2_141
*1358 FILLER_0_2_15
*1359 FILLER_0_2_153
*1360 FILLER_0_2_165
*1361 FILLER_0_2_177
*1362 FILLER_0_2_189
*1363 FILLER_0_2_195
*1364 FILLER_0_2_197
*1365 FILLER_0_2_209
*1366 FILLER_0_2_221
*1367 FILLER_0_2_233
*1368 FILLER_0_2_245
*1369 FILLER_0_2_251
*1370 FILLER_0_2_253
*1371 FILLER_0_2_265
*1372 FILLER_0_2_27
*1373 FILLER_0_2_277
*1374 FILLER_0_2_289
*1375 FILLER_0_2_29
*1376 FILLER_0_2_3
*1377 FILLER_0_2_301
*1378 FILLER_0_2_307
*1379 FILLER_0_2_309
*1380 FILLER_0_2_321
*1381 FILLER_0_2_333
*1382 FILLER_0_2_345
*1383 FILLER_0_2_357
*1384 FILLER_0_2_363
*1385 FILLER_0_2_365
*1386 FILLER_0_2_377
*1387 FILLER_0_2_389
*1388 FILLER_0_2_401
*1389 FILLER_0_2_41
*1390 FILLER_0_2_413
*1391 FILLER_0_2_419
*1392 FILLER_0_2_421
*1393 FILLER_0_2_433
*1394 FILLER_0_2_445
*1395 FILLER_0_2_457
*1396 FILLER_0_2_469
*1397 FILLER_0_2_475
*1398 FILLER_0_2_477
*1399 FILLER_0_2_489
*1400 FILLER_0_2_501
*1401 FILLER_0_2_513
*1402 FILLER_0_2_53
*1403 FILLER_0_2_65
*1404 FILLER_0_2_77
*1405 FILLER_0_2_83
*1406 FILLER_0_2_85
*1407 FILLER_0_2_97
*1408 FILLER_0_30_109
*1409 FILLER_0_30_121
*1410 FILLER_0_30_133
*1411 FILLER_0_30_139
*1412 FILLER_0_30_141
*1413 FILLER_0_30_15
*1414 FILLER_0_30_153
*1415 FILLER_0_30_165
*1416 FILLER_0_30_177
*1417 FILLER_0_30_189
*1418 FILLER_0_30_195
*1419 FILLER_0_30_197
*1420 FILLER_0_30_209
*1421 FILLER_0_30_221
*1422 FILLER_0_30_233
*1423 FILLER_0_30_245
*1424 FILLER_0_30_251