* NGSPICE file created from spm.ext - technology: sky130A

* Black-box entry subcircuit for sky130_fd_sc_hd__fill_2 abstract view
.subckt sky130_fd_sc_hd__fill_2 VGND VNB VPB VPWR
.ends

* Black-box entry subcircuit for sky130_fd_sc_hd__fill_1 abstract view
.subckt sky130_fd_sc_hd__fill_1 VGND VNB VPB VPWR
.ends

* Black-box entry subcircuit for sky130_fd_sc_hd__decap_8 abstract view
.subckt sky130_fd_sc_hd__decap_8 VGND VNB VPB VPWR
.ends

* Black-box entry subcircuit for sky130_fd_sc_hd__xnor2_1 abstract view
.subckt sky130_fd_sc_hd__xnor2_1 A B VGND VNB VPB VPWR Y
.ends

* Black-box entry subcircuit for sky130_fd_sc_hd__and2_1 abstract view
.subckt sky130_fd_sc_hd__and2_1 A B VGND VNB VPB VPWR X
.ends

* Black-box entry subcircuit for sky130_ef_sc_hd__decap_12 abstract view
.subckt sky130_ef_sc_hd__decap_12 VGND VNB VPB VPWR
.ends

* Black-box entry subcircuit for sky130_fd_sc_hd__inv_2 abstract view
.subckt sky130_fd_sc_hd__inv_2 A VGND VNB VPB VPWR Y
.ends

* Black-box entry subcircuit for sky130_fd_sc_hd__dfrtp_1 abstract view
.subckt sky130_fd_sc_hd__dfrtp_1 CLK D RESET_B VGND VNB VPB VPWR Q
.ends

* Black-box entry subcircuit for sky130_fd_sc_hd__a31o_1 abstract view
.subckt sky130_fd_sc_hd__a31o_1 A1 A2 A3 B1 VGND VNB VPB VPWR X
.ends

* Black-box entry subcircuit for sky130_fd_sc_hd__decap_4 abstract view
.subckt sky130_fd_sc_hd__decap_4 VGND VNB VPB VPWR
.ends

* Black-box entry subcircuit for sky130_fd_sc_hd__tapvpwrvgnd_1 abstract view
.subckt sky130_fd_sc_hd__tapvpwrvgnd_1 VGND VPWR
.ends

* Black-box entry subcircuit for sky130_fd_sc_hd__nand2_1 abstract view
.subckt sky130_fd_sc_hd__nand2_1 A B VGND VNB VPB VPWR Y
.ends

* Black-box entry subcircuit for sky130_fd_sc_hd__clkbuf_16 abstract view
.subckt sky130_fd_sc_hd__clkbuf_16 A VGND VNB VPB VPWR X
.ends

* Black-box entry subcircuit for sky130_fd_sc_hd__xor2_1 abstract view
.subckt sky130_fd_sc_hd__xor2_1 A B VGND VNB VPB VPWR X
.ends

* Black-box entry subcircuit for sky130_fd_sc_hd__decap_3 abstract view
.subckt sky130_fd_sc_hd__decap_3 VGND VNB VPB VPWR
.ends

* Black-box entry subcircuit for sky130_fd_sc_hd__decap_6 abstract view
.subckt sky130_fd_sc_hd__decap_6 VGND VNB VPB VPWR
.ends

* Black-box entry subcircuit for sky130_fd_sc_hd__clkbuf_4 abstract view
.subckt sky130_fd_sc_hd__clkbuf_4 A VGND VNB VPB VPWR X
.ends

* Black-box entry subcircuit for sky130_fd_sc_hd__clkbuf_1 abstract view
.subckt sky130_fd_sc_hd__clkbuf_1 A VGND VNB VPB VPWR X
.ends

* Black-box entry subcircuit for sky130_fd_sc_hd__buf_4 abstract view
.subckt sky130_fd_sc_hd__buf_4 A VGND VNB VPB VPWR X
.ends

* Black-box entry subcircuit for sky130_fd_sc_hd__nand3_1 abstract view
.subckt sky130_fd_sc_hd__nand3_1 A B C VGND VNB VPB VPWR Y
.ends

* Black-box entry subcircuit for sky130_fd_sc_hd__a21o_1 abstract view
.subckt sky130_fd_sc_hd__a21o_1 A1 A2 B1 VGND VNB VPB VPWR X
.ends

* Black-box entry subcircuit for sky130_fd_sc_hd__dlymetal6s2s_1 abstract view
.subckt sky130_fd_sc_hd__dlymetal6s2s_1 A VGND VNB VPB VPWR X
.ends

* Black-box entry subcircuit for sky130_fd_sc_hd__buf_2 abstract view
.subckt sky130_fd_sc_hd__buf_2 A VGND VNB VPB VPWR X
.ends

.subckt spm VGND VPWR clk p rst x[0] x[10] x[11] x[12] x[13] x[14] x[15] x[16] x[17]
+ x[18] x[19] x[1] x[20] x[21] x[22] x[23] x[24] x[25] x[26] x[27] x[28] x[29] x[2]
+ x[30] x[31] x[3] x[4] x[5] x[6] x[7] x[8] x[9] y
XFILLER_0_4_182 VGND VGND VPWR VPWR sky130_fd_sc_hd__fill_2
XFILLER_0_4_193 VGND VGND VPWR VPWR sky130_fd_sc_hd__fill_1
XFILLER_0_7_81 VGND VGND VPWR VPWR sky130_fd_sc_hd__decap_8
X_294_ _151_ _149_ VGND VGND VPWR VPWR genblk1\[15\].csa.hsum2 sky130_fd_sc_hd__xnor2_1
X_363_ genblk1\[29\].csa.sc genblk1\[29\].csa.y VGND VGND VPWR VPWR _194_ sky130_fd_sc_hd__and2_1
XFILLER_0_3_39 VGND VGND VPWR VPWR sky130_ef_sc_hd__decap_12
X_432_ _205_ VGND VGND VPWR VPWR _086_ sky130_fd_sc_hd__inv_2
X_501_ clknet_3_5__leaf_clk _020_ _091_ VGND VGND VPWR VPWR genblk1\[28\].csa.sc sky130_fd_sc_hd__dfrtp_1
X_415_ _203_ VGND VGND VPWR VPWR _071_ sky130_fd_sc_hd__inv_2
X_346_ _183_ _181_ VGND VGND VPWR VPWR genblk1\[25\].csa.hsum2 sky130_fd_sc_hd__xnor2_1
X_277_ _133_ net5 _140_ _141_ VGND VGND VPWR VPWR _003_ sky130_fd_sc_hd__a31o_1
XFILLER_0_4_82 VGND VGND VPWR VPWR sky130_fd_sc_hd__fill_2
X_329_ _165_ net16 _172_ _173_ VGND VGND VPWR VPWR _014_ sky130_fd_sc_hd__a31o_1
XFILLER_0_29_39 VGND VGND VPWR VPWR sky130_fd_sc_hd__fill_2
XFILLER_0_0_29 VGND VGND VPWR VPWR sky130_ef_sc_hd__decap_12
XFILLER_0_10_85 VGND VGND VPWR VPWR sky130_ef_sc_hd__decap_12
XFILLER_0_19_169 VGND VGND VPWR VPWR sky130_ef_sc_hd__decap_12
XFILLER_0_19_125 VGND VGND VPWR VPWR sky130_fd_sc_hd__decap_4
XFILLER_0_24_183 VGND VGND VPWR VPWR sky130_fd_sc_hd__fill_1
XFILLER_0_24_150 VGND VGND VPWR VPWR sky130_fd_sc_hd__fill_1
XFILLER_0_21_51 VGND VGND VPWR VPWR sky130_fd_sc_hd__decap_4
XFILLER_0_16_139 VGND VGND VPWR VPWR sky130_fd_sc_hd__fill_1
XFILLER_0_30_153 VGND VGND VPWR VPWR sky130_ef_sc_hd__decap_12
XFILLER_0_26_29 VGND VGND VPWR VPWR sky130_fd_sc_hd__decap_8
XFILLER_0_16_40 VGND VGND VPWR VPWR sky130_fd_sc_hd__decap_4
XTAP_167 VGND VPWR sky130_fd_sc_hd__tapvpwrvgnd_1
XTAP_156 VGND VPWR sky130_fd_sc_hd__tapvpwrvgnd_1
XTAP_145 VGND VPWR sky130_fd_sc_hd__tapvpwrvgnd_1
XTAP_134 VGND VPWR sky130_fd_sc_hd__tapvpwrvgnd_1
XTAP_123 VGND VPWR sky130_fd_sc_hd__tapvpwrvgnd_1
XTAP_112 VGND VPWR sky130_fd_sc_hd__tapvpwrvgnd_1
XTAP_101 VGND VPWR sky130_fd_sc_hd__tapvpwrvgnd_1
X_293_ _122_ net8 VGND VGND VPWR VPWR _151_ sky130_fd_sc_hd__nand2_1
X_500_ clknet_3_5__leaf_clk genblk1\[27\].csa.hsum2 _090_ VGND VGND VPWR VPWR genblk1\[26\].csa.y
+ sky130_fd_sc_hd__dfrtp_1
Xclkbuf_3_6__f_clk clknet_0_clk VGND VGND VPWR VPWR clknet_3_6__leaf_clk sky130_fd_sc_hd__clkbuf_16
X_362_ genblk1\[29\].csa.sc genblk1\[29\].csa.y VGND VGND VPWR VPWR _193_ sky130_fd_sc_hd__xor2_1
X_431_ _205_ VGND VGND VPWR VPWR _085_ sky130_fd_sc_hd__inv_2
XFILLER_0_1_164 VGND VGND VPWR VPWR sky130_fd_sc_hd__decap_4
X_276_ genblk1\[12\].csa.sc genblk1\[12\].csa.y VGND VGND VPWR VPWR _141_ sky130_fd_sc_hd__and2_1
X_414_ _203_ VGND VGND VPWR VPWR _070_ sky130_fd_sc_hd__inv_2
X_345_ _154_ net19 VGND VGND VPWR VPWR _183_ sky130_fd_sc_hd__nand2_1
X_328_ genblk1\[22\].csa.sc genblk1\[22\].csa.y VGND VGND VPWR VPWR _173_ sky130_fd_sc_hd__and2_1
X_259_ genblk1\[9\].csa.sc genblk1\[10\].csa.sum VGND VGND VPWR VPWR _130_ sky130_fd_sc_hd__xor2_1
XFILLER_0_9_17 VGND VGND VPWR VPWR sky130_ef_sc_hd__decap_12
XFILLER_0_27_181 VGND VGND VPWR VPWR sky130_ef_sc_hd__decap_12
XFILLER_0_10_97 VGND VGND VPWR VPWR sky130_fd_sc_hd__decap_4
XFILLER_0_24_162 VGND VGND VPWR VPWR sky130_fd_sc_hd__decap_3
XFILLER_0_16_129 VGND VGND VPWR VPWR sky130_fd_sc_hd__decap_4
XFILLER_0_30_165 VGND VGND VPWR VPWR sky130_ef_sc_hd__decap_12
XFILLER_0_16_85 VGND VGND VPWR VPWR sky130_ef_sc_hd__decap_12
XFILLER_0_6_29 VGND VGND VPWR VPWR sky130_fd_sc_hd__decap_4
XFILLER_0_8_126 VGND VGND VPWR VPWR sky130_ef_sc_hd__decap_12
XTAP_168 VGND VPWR sky130_fd_sc_hd__tapvpwrvgnd_1
XTAP_157 VGND VPWR sky130_fd_sc_hd__tapvpwrvgnd_1
XTAP_146 VGND VPWR sky130_fd_sc_hd__tapvpwrvgnd_1
XTAP_135 VGND VPWR sky130_fd_sc_hd__tapvpwrvgnd_1
XTAP_124 VGND VPWR sky130_fd_sc_hd__tapvpwrvgnd_1
XTAP_113 VGND VPWR sky130_fd_sc_hd__tapvpwrvgnd_1
XTAP_102 VGND VPWR sky130_fd_sc_hd__tapvpwrvgnd_1
X_292_ _133_ net8 _149_ _150_ VGND VGND VPWR VPWR _006_ sky130_fd_sc_hd__a31o_1
X_430_ _205_ VGND VGND VPWR VPWR _084_ sky130_fd_sc_hd__inv_2
X_361_ _192_ _190_ VGND VGND VPWR VPWR genblk1\[28\].csa.hsum2 sky130_fd_sc_hd__xnor2_1
X_275_ genblk1\[12\].csa.sc genblk1\[12\].csa.y VGND VGND VPWR VPWR _140_ sky130_fd_sc_hd__xor2_1
X_413_ _203_ VGND VGND VPWR VPWR _069_ sky130_fd_sc_hd__inv_2
X_344_ _165_ net19 _181_ _182_ VGND VGND VPWR VPWR _017_ sky130_fd_sc_hd__a31o_1
XFILLER_0_28_116 VGND VGND VPWR VPWR sky130_fd_sc_hd__decap_3
X_327_ genblk1\[22\].csa.sc genblk1\[22\].csa.y VGND VGND VPWR VPWR _172_ sky130_fd_sc_hd__xor2_1
XFILLER_0_19_105 VGND VGND VPWR VPWR sky130_fd_sc_hd__decap_6
X_258_ _129_ _127_ VGND VGND VPWR VPWR genblk1\[8\].csa.hsum2 sky130_fd_sc_hd__xnor2_1
XFILLER_0_10_43 VGND VGND VPWR VPWR sky130_fd_sc_hd__fill_1
XFILLER_0_27_193 VGND VGND VPWR VPWR sky130_fd_sc_hd__fill_1
XFILLER_0_18_182 VGND VGND VPWR VPWR sky130_ef_sc_hd__decap_12
XFILLER_0_30_177 VGND VGND VPWR VPWR sky130_fd_sc_hd__decap_6
XFILLER_0_15_163 VGND VGND VPWR VPWR sky130_fd_sc_hd__decap_4
XFILLER_0_21_155 VGND VGND VPWR VPWR sky130_ef_sc_hd__decap_12
XFILLER_0_16_97 VGND VGND VPWR VPWR sky130_fd_sc_hd__decap_8
XFILLER_0_12_166 VGND VGND VPWR VPWR sky130_fd_sc_hd__decap_4
XFILLER_0_8_105 VGND VGND VPWR VPWR sky130_fd_sc_hd__fill_1
XFILLER_0_8_138 VGND VGND VPWR VPWR sky130_fd_sc_hd__fill_2
XFILLER_0_7_193 VGND VGND VPWR VPWR sky130_fd_sc_hd__fill_1
XFILLER_0_9_3 VGND VGND VPWR VPWR sky130_fd_sc_hd__decap_8
XTAP_169 VGND VPWR sky130_fd_sc_hd__tapvpwrvgnd_1
XTAP_158 VGND VPWR sky130_fd_sc_hd__tapvpwrvgnd_1
XTAP_147 VGND VPWR sky130_fd_sc_hd__tapvpwrvgnd_1
XFILLER_0_27_30 VGND VGND VPWR VPWR sky130_ef_sc_hd__decap_12
XTAP_136 VGND VPWR sky130_fd_sc_hd__tapvpwrvgnd_1
XTAP_125 VGND VPWR sky130_fd_sc_hd__tapvpwrvgnd_1
XTAP_114 VGND VPWR sky130_fd_sc_hd__tapvpwrvgnd_1
XTAP_103 VGND VPWR sky130_fd_sc_hd__tapvpwrvgnd_1
X_291_ genblk1\[15\].csa.sc genblk1\[15\].csa.y VGND VGND VPWR VPWR _150_ sky130_fd_sc_hd__and2_1
XFILLER_0_4_141 VGND VGND VPWR VPWR sky130_fd_sc_hd__fill_1
X_360_ _097_ net22 VGND VGND VPWR VPWR _192_ sky130_fd_sc_hd__nand2_1
XFILLER_0_7_51 VGND VGND VPWR VPWR sky130_fd_sc_hd__decap_4
X_489_ clknet_3_7__leaf_clk _014_ _079_ VGND VGND VPWR VPWR genblk1\[22\].csa.sc sky130_fd_sc_hd__dfrtp_1
XFILLER_0_1_122 VGND VGND VPWR VPWR sky130_fd_sc_hd__decap_4
X_274_ _139_ _137_ VGND VGND VPWR VPWR genblk1\[11\].csa.hsum2 sky130_fd_sc_hd__xnor2_1
X_412_ _203_ VGND VGND VPWR VPWR _068_ sky130_fd_sc_hd__inv_2
X_343_ genblk1\[25\].csa.sc genblk1\[25\].csa.y VGND VGND VPWR VPWR _182_ sky130_fd_sc_hd__and2_1
XFILLER_0_24_64 VGND VGND VPWR VPWR sky130_ef_sc_hd__decap_12
XFILLER_0_4_41 VGND VGND VPWR VPWR sky130_ef_sc_hd__decap_12
XFILLER_0_4_74 VGND VGND VPWR VPWR sky130_fd_sc_hd__fill_1
X_326_ _171_ _169_ VGND VGND VPWR VPWR genblk1\[21\].csa.hsum2 sky130_fd_sc_hd__xnor2_1
X_257_ _122_ net32 VGND VGND VPWR VPWR _129_ sky130_fd_sc_hd__nand2_1
XFILLER_0_10_11 VGND VGND VPWR VPWR sky130_fd_sc_hd__fill_1
XFILLER_0_27_150 VGND VGND VPWR VPWR sky130_ef_sc_hd__decap_12
X_309_ _154_ net11 VGND VGND VPWR VPWR _161_ sky130_fd_sc_hd__nand2_1
XFILLER_0_18_161 VGND VGND VPWR VPWR sky130_fd_sc_hd__fill_1
XFILLER_0_30_112 VGND VGND VPWR VPWR sky130_fd_sc_hd__decap_8
XFILLER_0_24_131 VGND VGND VPWR VPWR sky130_fd_sc_hd__fill_2
XFILLER_0_15_153 VGND VGND VPWR VPWR sky130_fd_sc_hd__decap_6
XFILLER_0_1_53 VGND VGND VPWR VPWR sky130_fd_sc_hd__decap_3
XFILLER_0_30_123 VGND VGND VPWR VPWR sky130_ef_sc_hd__decap_12
XFILLER_0_21_167 VGND VGND VPWR VPWR sky130_fd_sc_hd__fill_1
XFILLER_0_12_145 VGND VGND VPWR VPWR sky130_fd_sc_hd__fill_1
XFILLER_0_32_3 VGND VGND VPWR VPWR sky130_fd_sc_hd__decap_3
XTAP_159 VGND VPWR sky130_fd_sc_hd__tapvpwrvgnd_1
XTAP_148 VGND VPWR sky130_fd_sc_hd__tapvpwrvgnd_1
XFILLER_0_27_42 VGND VGND VPWR VPWR sky130_ef_sc_hd__decap_12
XTAP_137 VGND VPWR sky130_fd_sc_hd__tapvpwrvgnd_1
XTAP_126 VGND VPWR sky130_fd_sc_hd__tapvpwrvgnd_1
XTAP_115 VGND VPWR sky130_fd_sc_hd__tapvpwrvgnd_1
XTAP_104 VGND VPWR sky130_fd_sc_hd__tapvpwrvgnd_1
XFILLER_0_4_131 VGND VGND VPWR VPWR sky130_fd_sc_hd__decap_8
X_290_ genblk1\[15\].csa.sc genblk1\[15\].csa.y VGND VGND VPWR VPWR _149_ sky130_fd_sc_hd__xor2_1
X_488_ clknet_3_7__leaf_clk genblk1\[21\].csa.hsum2 _078_ VGND VGND VPWR VPWR genblk1\[20\].csa.y
+ sky130_fd_sc_hd__dfrtp_1
XFILLER_0_1_178 VGND VGND VPWR VPWR sky130_fd_sc_hd__decap_4
X_273_ _122_ net4 VGND VGND VPWR VPWR _139_ sky130_fd_sc_hd__nand2_1
X_411_ _203_ VGND VGND VPWR VPWR _067_ sky130_fd_sc_hd__inv_2
X_342_ genblk1\[25\].csa.sc genblk1\[25\].csa.y VGND VGND VPWR VPWR _181_ sky130_fd_sc_hd__xor2_1
XFILLER_0_24_76 VGND VGND VPWR VPWR sky130_fd_sc_hd__decap_8
XFILLER_0_24_43 VGND VGND VPWR VPWR sky130_fd_sc_hd__fill_1
XFILLER_0_4_53 VGND VGND VPWR VPWR sky130_fd_sc_hd__decap_6
X_325_ _154_ net15 VGND VGND VPWR VPWR _171_ sky130_fd_sc_hd__nand2_1
X_256_ _099_ net32 _127_ _128_ VGND VGND VPWR VPWR _029_ sky130_fd_sc_hd__a31o_1
XFILLER_0_27_162 VGND VGND VPWR VPWR sky130_fd_sc_hd__decap_6
XFILLER_0_27_140 VGND VGND VPWR VPWR sky130_fd_sc_hd__decap_4
XFILLER_0_19_129 VGND VGND VPWR VPWR sky130_fd_sc_hd__fill_1
X_308_ _133_ net11 _159_ _160_ VGND VGND VPWR VPWR _009_ sky130_fd_sc_hd__a31o_1
XFILLER_0_27_6 VGND VGND VPWR VPWR sky130_ef_sc_hd__decap_12
XFILLER_0_24_154 VGND VGND VPWR VPWR sky130_fd_sc_hd__decap_4
XFILLER_0_21_55 VGND VGND VPWR VPWR sky130_fd_sc_hd__fill_1
X_239_ genblk1\[5\].csa.sc genblk1\[5\].csa.y VGND VGND VPWR VPWR _118_ sky130_fd_sc_hd__and2_1
XFILLER_0_30_135 VGND VGND VPWR VPWR sky130_fd_sc_hd__decap_4
XFILLER_0_32_21 VGND VGND VPWR VPWR sky130_fd_sc_hd__decap_3
XFILLER_0_21_113 VGND VGND VPWR VPWR sky130_fd_sc_hd__fill_2
XFILLER_0_16_11 VGND VGND VPWR VPWR sky130_fd_sc_hd__fill_2
XFILLER_0_25_3 VGND VGND VPWR VPWR sky130_ef_sc_hd__decap_12
Xoutput35 net35 VGND VGND VPWR VPWR p sky130_fd_sc_hd__clkbuf_4
XTAP_149 VGND VPWR sky130_fd_sc_hd__tapvpwrvgnd_1
XTAP_138 VGND VPWR sky130_fd_sc_hd__tapvpwrvgnd_1
XTAP_127 VGND VPWR sky130_fd_sc_hd__tapvpwrvgnd_1
XTAP_116 VGND VPWR sky130_fd_sc_hd__tapvpwrvgnd_1
Xclkbuf_3_1__f_clk clknet_0_clk VGND VGND VPWR VPWR clknet_3_1__leaf_clk sky130_fd_sc_hd__clkbuf_16
XTAP_105 VGND VPWR sky130_fd_sc_hd__tapvpwrvgnd_1
XFILLER_0_27_87 VGND VGND VPWR VPWR sky130_ef_sc_hd__decap_12
XFILLER_0_27_54 VGND VGND VPWR VPWR sky130_fd_sc_hd__fill_2
XFILLER_0_4_176 VGND VGND VPWR VPWR sky130_fd_sc_hd__decap_3
X_487_ clknet_3_7__leaf_clk _013_ _077_ VGND VGND VPWR VPWR genblk1\[21\].csa.sc sky130_fd_sc_hd__dfrtp_1
XFILLER_0_13_12 VGND VGND VPWR VPWR sky130_ef_sc_hd__decap_12
XFILLER_0_1_113 VGND VGND VPWR VPWR sky130_fd_sc_hd__fill_2
X_272_ _133_ net4 _137_ _138_ VGND VGND VPWR VPWR _002_ sky130_fd_sc_hd__a31o_1
X_410_ _203_ VGND VGND VPWR VPWR _066_ sky130_fd_sc_hd__inv_2
X_341_ _180_ _178_ VGND VGND VPWR VPWR genblk1\[24\].csa.hsum2 sky130_fd_sc_hd__xnor2_1
XFILLER_0_24_88 VGND VGND VPWR VPWR sky130_fd_sc_hd__fill_2
X_324_ _165_ net15 _169_ _170_ VGND VGND VPWR VPWR _013_ sky130_fd_sc_hd__a31o_1
X_255_ genblk1\[8\].csa.sc genblk1\[8\].csa.y VGND VGND VPWR VPWR _128_ sky130_fd_sc_hd__and2_1
XFILLER_0_19_55 VGND VGND VPWR VPWR sky130_fd_sc_hd__fill_1
XFILLER_0_18_141 VGND VGND VPWR VPWR sky130_ef_sc_hd__decap_12
X_307_ genblk1\[18\].csa.sc genblk1\[18\].csa.y VGND VGND VPWR VPWR _160_ sky130_fd_sc_hd__and2_1
XFILLER_0_24_177 VGND VGND VPWR VPWR sky130_fd_sc_hd__decap_6
XFILLER_0_24_144 VGND VGND VPWR VPWR sky130_fd_sc_hd__decap_3
XFILLER_0_21_89 VGND VGND VPWR VPWR sky130_fd_sc_hd__decap_3
X_238_ genblk1\[5\].csa.sc genblk1\[5\].csa.y VGND VGND VPWR VPWR _117_ sky130_fd_sc_hd__xor2_1
XFILLER_0_15_111 VGND VGND VPWR VPWR sky130_fd_sc_hd__fill_1
XFILLER_0_32_88 VGND VGND VPWR VPWR sky130_fd_sc_hd__fill_2
XFILLER_0_32_33 VGND VGND VPWR VPWR sky130_fd_sc_hd__decap_3
XFILLER_0_21_169 VGND VGND VPWR VPWR sky130_fd_sc_hd__decap_4
XFILLER_0_32_99 VGND VGND VPWR VPWR sky130_fd_sc_hd__decap_3
XFILLER_0_27_99 VGND VGND VPWR VPWR sky130_ef_sc_hd__decap_12
XTAP_139 VGND VPWR sky130_fd_sc_hd__tapvpwrvgnd_1
XTAP_128 VGND VPWR sky130_fd_sc_hd__tapvpwrvgnd_1
XTAP_117 VGND VPWR sky130_fd_sc_hd__tapvpwrvgnd_1
XTAP_106 VGND VPWR sky130_fd_sc_hd__tapvpwrvgnd_1
XPHY_0 VGND VGND VPWR VPWR sky130_fd_sc_hd__decap_3
XFILLER_0_7_3 VGND VGND VPWR VPWR sky130_ef_sc_hd__decap_12
X_486_ clknet_3_6__leaf_clk genblk1\[20\].csa.hsum2 _076_ VGND VGND VPWR VPWR genblk1\[19\].csa.y
+ sky130_fd_sc_hd__dfrtp_1
XFILLER_0_13_57 VGND VGND VPWR VPWR sky130_ef_sc_hd__decap_12
XFILLER_0_13_24 VGND VGND VPWR VPWR sky130_fd_sc_hd__fill_2
XFILLER_0_1_169 VGND VGND VPWR VPWR sky130_fd_sc_hd__fill_2
X_271_ genblk1\[11\].csa.sc genblk1\[11\].csa.y VGND VGND VPWR VPWR _138_ sky130_fd_sc_hd__and2_1
X_340_ _154_ net18 VGND VGND VPWR VPWR _180_ sky130_fd_sc_hd__nand2_1
X_469_ clknet_3_3__leaf_clk _003_ _059_ VGND VGND VPWR VPWR genblk1\[12\].csa.sc sky130_fd_sc_hd__dfrtp_1
XFILLER_0_4_66 VGND VGND VPWR VPWR sky130_fd_sc_hd__decap_8
X_323_ genblk1\[21\].csa.sc genblk1\[21\].csa.y VGND VGND VPWR VPWR _170_ sky130_fd_sc_hd__and2_1
X_254_ genblk1\[8\].csa.sc genblk1\[8\].csa.y VGND VGND VPWR VPWR _127_ sky130_fd_sc_hd__xor2_1
XFILLER_0_18_153 VGND VGND VPWR VPWR sky130_fd_sc_hd__decap_8
X_306_ genblk1\[18\].csa.sc genblk1\[18\].csa.y VGND VGND VPWR VPWR _159_ sky130_fd_sc_hd__xor2_1
XFILLER_0_24_189 VGND VGND VPWR VPWR sky130_fd_sc_hd__decap_4
XFILLER_0_24_123 VGND VGND VPWR VPWR sky130_fd_sc_hd__decap_8
XFILLER_0_21_57 VGND VGND VPWR VPWR sky130_ef_sc_hd__decap_12
X_237_ _116_ _114_ VGND VGND VPWR VPWR genblk1\[4\].csa.hsum2 sky130_fd_sc_hd__xnor2_1
XFILLER_0_15_167 VGND VGND VPWR VPWR sky130_fd_sc_hd__fill_1
XFILLER_0_1_45 VGND VGND VPWR VPWR sky130_fd_sc_hd__decap_8
XFILLER_0_32_67 VGND VGND VPWR VPWR sky130_fd_sc_hd__fill_1
XFILLER_0_32_45 VGND VGND VPWR VPWR sky130_fd_sc_hd__fill_1
XFILLER_0_20_181 VGND VGND VPWR VPWR sky130_ef_sc_hd__decap_12
XFILLER_0_11_192 VGND VGND VPWR VPWR sky130_fd_sc_hd__fill_2
XTAP_129 VGND VPWR sky130_fd_sc_hd__tapvpwrvgnd_1
XTAP_118 VGND VPWR sky130_fd_sc_hd__tapvpwrvgnd_1
XTAP_107 VGND VPWR sky130_fd_sc_hd__tapvpwrvgnd_1
XPHY_1 VGND VGND VPWR VPWR sky130_fd_sc_hd__decap_3
XFILLER_0_30_3 VGND VGND VPWR VPWR sky130_ef_sc_hd__decap_12
XFILLER_0_4_189 VGND VGND VPWR VPWR sky130_fd_sc_hd__decap_4
XFILLER_0_7_55 VGND VGND VPWR VPWR sky130_fd_sc_hd__fill_1
X_485_ clknet_3_6__leaf_clk _012_ _075_ VGND VGND VPWR VPWR genblk1\[20\].csa.sc sky130_fd_sc_hd__dfrtp_1
XFILLER_0_13_69 VGND VGND VPWR VPWR sky130_fd_sc_hd__fill_1
XFILLER_0_0_181 VGND VGND VPWR VPWR sky130_ef_sc_hd__decap_12
X_270_ genblk1\[11\].csa.sc genblk1\[11\].csa.y VGND VGND VPWR VPWR _137_ sky130_fd_sc_hd__xor2_1
X_468_ clknet_3_2__leaf_clk genblk1\[11\].csa.hsum2 _058_ VGND VGND VPWR VPWR genblk1\[10\].csa.y
+ sky130_fd_sc_hd__dfrtp_1
X_399_ _202_ VGND VGND VPWR VPWR _056_ sky130_fd_sc_hd__inv_2
X_322_ genblk1\[21\].csa.sc genblk1\[21\].csa.y VGND VGND VPWR VPWR _169_ sky130_fd_sc_hd__xor2_1
XFILLER_0_19_57 VGND VGND VPWR VPWR sky130_ef_sc_hd__decap_12
XFILLER_0_19_35 VGND VGND VPWR VPWR sky130_ef_sc_hd__decap_12
XFILLER_0_19_13 VGND VGND VPWR VPWR sky130_ef_sc_hd__decap_12
Xclkbuf_3_7__f_clk clknet_0_clk VGND VGND VPWR VPWR clknet_3_7__leaf_clk sky130_fd_sc_hd__clkbuf_16
X_253_ _126_ _124_ VGND VGND VPWR VPWR genblk1\[7\].csa.hsum2 sky130_fd_sc_hd__xnor2_1
X_305_ _158_ _156_ VGND VGND VPWR VPWR genblk1\[17\].csa.hsum2 sky130_fd_sc_hd__xnor2_1
XFILLER_0_24_168 VGND VGND VPWR VPWR sky130_fd_sc_hd__decap_6
XFILLER_0_21_69 VGND VGND VPWR VPWR sky130_ef_sc_hd__decap_12
X_236_ _098_ net28 VGND VGND VPWR VPWR _116_ sky130_fd_sc_hd__nand2_1
XFILLER_0_30_105 VGND VGND VPWR VPWR sky130_fd_sc_hd__fill_2
XFILLER_0_1_57 VGND VGND VPWR VPWR sky130_ef_sc_hd__decap_12
XFILLER_0_11_91 VGND VGND VPWR VPWR sky130_ef_sc_hd__decap_12
XFILLER_0_20_193 VGND VGND VPWR VPWR sky130_fd_sc_hd__fill_1
X_219_ genblk1\[1\].csa.sc genblk1\[1\].csa.y VGND VGND VPWR VPWR _106_ sky130_fd_sc_hd__and2_1
XFILLER_0_27_57 VGND VGND VPWR VPWR sky130_ef_sc_hd__decap_12
XTAP_119 VGND VPWR sky130_fd_sc_hd__tapvpwrvgnd_1
Xclkbuf_0_clk clk VGND VGND VPWR VPWR clknet_0_clk sky130_fd_sc_hd__clkbuf_16
XTAP_108 VGND VPWR sky130_fd_sc_hd__tapvpwrvgnd_1
XPHY_2 VGND VGND VPWR VPWR sky130_fd_sc_hd__decap_3
XFILLER_0_23_3 VGND VGND VPWR VPWR sky130_ef_sc_hd__decap_12
XFILLER_0_4_168 VGND VGND VPWR VPWR sky130_fd_sc_hd__decap_8
XFILLER_0_7_89 VGND VGND VPWR VPWR sky130_fd_sc_hd__decap_3
X_484_ clknet_3_7__leaf_clk genblk1\[19\].csa.hsum2 _074_ VGND VGND VPWR VPWR genblk1\[18\].csa.y
+ sky130_fd_sc_hd__dfrtp_1
XFILLER_0_1_149 VGND VGND VPWR VPWR sky130_fd_sc_hd__fill_2
XFILLER_0_1_138 VGND VGND VPWR VPWR sky130_fd_sc_hd__fill_1
XFILLER_0_0_193 VGND VGND VPWR VPWR sky130_fd_sc_hd__fill_1
X_467_ clknet_3_2__leaf_clk _002_ _057_ VGND VGND VPWR VPWR genblk1\[11\].csa.sc sky130_fd_sc_hd__dfrtp_1
X_398_ _202_ VGND VGND VPWR VPWR _055_ sky130_fd_sc_hd__inv_2
X_321_ _168_ _166_ VGND VGND VPWR VPWR genblk1\[20\].csa.hsum2 sky130_fd_sc_hd__xnor2_1
XFILLER_0_19_69 VGND VGND VPWR VPWR sky130_fd_sc_hd__decap_4
XFILLER_0_19_47 VGND VGND VPWR VPWR sky130_fd_sc_hd__decap_8
X_252_ _122_ net31 VGND VGND VPWR VPWR _126_ sky130_fd_sc_hd__nand2_1
XFILLER_0_10_27 VGND VGND VPWR VPWR sky130_fd_sc_hd__fill_1
XFILLER_0_27_144 VGND VGND VPWR VPWR sky130_fd_sc_hd__fill_1
XFILLER_0_27_122 VGND VGND VPWR VPWR sky130_fd_sc_hd__fill_1
XFILLER_0_27_111 VGND VGND VPWR VPWR sky130_fd_sc_hd__fill_1
X_304_ _154_ net10 VGND VGND VPWR VPWR _158_ sky130_fd_sc_hd__nand2_1
XFILLER_0_21_15 VGND VGND VPWR VPWR sky130_ef_sc_hd__decap_12
X_235_ _099_ net28 _114_ _115_ VGND VGND VPWR VPWR _025_ sky130_fd_sc_hd__a31o_1
XFILLER_0_24_158 VGND VGND VPWR VPWR sky130_fd_sc_hd__fill_1
XFILLER_0_15_169 VGND VGND VPWR VPWR sky130_fd_sc_hd__decap_4
XFILLER_0_1_69 VGND VGND VPWR VPWR sky130_ef_sc_hd__decap_12
XFILLER_0_30_139 VGND VGND VPWR VPWR sky130_fd_sc_hd__fill_1
XFILLER_0_14_191 VGND VGND VPWR VPWR sky130_fd_sc_hd__decap_3
X_218_ genblk1\[1\].csa.sc genblk1\[1\].csa.y VGND VGND VPWR VPWR _105_ sky130_fd_sc_hd__xor2_1
XFILLER_0_7_166 VGND VGND VPWR VPWR sky130_fd_sc_hd__fill_2
XFILLER_0_11_161 VGND VGND VPWR VPWR sky130_fd_sc_hd__decap_6
XFILLER_0_27_69 VGND VGND VPWR VPWR sky130_ef_sc_hd__decap_12
XTAP_109 VGND VPWR sky130_fd_sc_hd__tapvpwrvgnd_1
XFILLER_0_17_91 VGND VGND VPWR VPWR sky130_fd_sc_hd__fill_1
XFILLER_0_16_3 VGND VGND VPWR VPWR sky130_fd_sc_hd__decap_8
XPHY_3 VGND VGND VPWR VPWR sky130_fd_sc_hd__decap_3
XFILLER_0_4_125 VGND VGND VPWR VPWR sky130_fd_sc_hd__decap_3
XFILLER_0_4_147 VGND VGND VPWR VPWR sky130_fd_sc_hd__decap_6
XFILLER_0_7_57 VGND VGND VPWR VPWR sky130_ef_sc_hd__decap_12
X_483_ clknet_3_6__leaf_clk _010_ _073_ VGND VGND VPWR VPWR genblk1\[19\].csa.sc sky130_fd_sc_hd__dfrtp_1
XFILLER_0_24_37 VGND VGND VPWR VPWR sky130_fd_sc_hd__decap_6
XFILLER_0_24_15 VGND VGND VPWR VPWR sky130_ef_sc_hd__decap_12
X_397_ _202_ VGND VGND VPWR VPWR _054_ sky130_fd_sc_hd__inv_2
XFILLER_0_5_3 VGND VGND VPWR VPWR sky130_ef_sc_hd__decap_12
X_466_ clknet_3_1__leaf_clk genblk1\[10\].csa.hsum2 _056_ VGND VGND VPWR VPWR genblk1\[10\].csa.sum
+ sky130_fd_sc_hd__dfrtp_1
X_320_ _154_ net14 VGND VGND VPWR VPWR _168_ sky130_fd_sc_hd__nand2_1
X_251_ _099_ net31 _124_ _125_ VGND VGND VPWR VPWR _028_ sky130_fd_sc_hd__a31o_1
XFILLER_0_10_39 VGND VGND VPWR VPWR sky130_fd_sc_hd__decap_4
X_449_ clknet_3_0__leaf_clk _022_ _039_ VGND VGND VPWR VPWR genblk1\[2\].csa.sc sky130_fd_sc_hd__dfrtp_1
X_303_ _133_ net10 _156_ _157_ VGND VGND VPWR VPWR _008_ sky130_fd_sc_hd__a31o_1
XFILLER_0_24_104 VGND VGND VPWR VPWR sky130_fd_sc_hd__fill_2
XFILLER_0_21_27 VGND VGND VPWR VPWR sky130_fd_sc_hd__decap_3
XFILLER_0_1_15 VGND VGND VPWR VPWR sky130_ef_sc_hd__decap_12
X_234_ genblk1\[4\].csa.sc genblk1\[4\].csa.y VGND VGND VPWR VPWR _115_ sky130_fd_sc_hd__and2_1
XFILLER_0_23_181 VGND VGND VPWR VPWR sky130_ef_sc_hd__decap_12
XFILLER_0_15_159 VGND VGND VPWR VPWR sky130_fd_sc_hd__fill_1
XFILLER_0_32_15 VGND VGND VPWR VPWR sky130_fd_sc_hd__decap_3
X_217_ _104_ VGND VGND VPWR VPWR _031_ sky130_fd_sc_hd__clkbuf_1
XFILLER_0_16_27 VGND VGND VPWR VPWR sky130_fd_sc_hd__fill_1
XFILLER_0_32_9 VGND VGND VPWR VPWR sky130_fd_sc_hd__decap_3
XPHY_4 VGND VGND VPWR VPWR sky130_fd_sc_hd__decap_3
XFILLER_0_4_159 VGND VGND VPWR VPWR sky130_fd_sc_hd__decap_6
XFILLER_0_7_69 VGND VGND VPWR VPWR sky130_ef_sc_hd__decap_12
XFILLER_0_3_181 VGND VGND VPWR VPWR sky130_ef_sc_hd__decap_12
X_482_ clknet_3_6__leaf_clk genblk1\[18\].csa.hsum2 _072_ VGND VGND VPWR VPWR genblk1\[17\].csa.y
+ sky130_fd_sc_hd__dfrtp_1
XFILLER_0_1_107 VGND VGND VPWR VPWR sky130_fd_sc_hd__fill_2
XFILLER_0_24_27 VGND VGND VPWR VPWR sky130_fd_sc_hd__fill_1
X_465_ clknet_3_2__leaf_clk _001_ _055_ VGND VGND VPWR VPWR genblk1\[10\].csa.sc sky130_fd_sc_hd__dfrtp_1
X_396_ _202_ VGND VGND VPWR VPWR _053_ sky130_fd_sc_hd__inv_2
XFILLER_0_4_15 VGND VGND VPWR VPWR sky130_ef_sc_hd__decap_12
XFILLER_0_4_59 VGND VGND VPWR VPWR sky130_fd_sc_hd__fill_1
X_250_ genblk1\[7\].csa.sc genblk1\[7\].csa.y VGND VGND VPWR VPWR _125_ sky130_fd_sc_hd__and2_1
X_448_ clknet_3_3__leaf_clk genblk1\[1\].csa.hsum2 _038_ VGND VGND VPWR VPWR csa0.y
+ sky130_fd_sc_hd__dfrtp_1
X_379_ _200_ VGND VGND VPWR VPWR _038_ sky130_fd_sc_hd__inv_2
XFILLER_0_18_124 VGND VGND VPWR VPWR sky130_ef_sc_hd__decap_12
XFILLER_0_32_193 VGND VGND VPWR VPWR sky130_fd_sc_hd__fill_1
X_302_ genblk1\[17\].csa.sc genblk1\[17\].csa.y VGND VGND VPWR VPWR _157_ sky130_fd_sc_hd__and2_1
XFILLER_0_24_138 VGND VGND VPWR VPWR sky130_fd_sc_hd__fill_2
XFILLER_0_21_39 VGND VGND VPWR VPWR sky130_ef_sc_hd__decap_12
XFILLER_0_1_27 VGND VGND VPWR VPWR sky130_ef_sc_hd__decap_12
X_233_ genblk1\[4\].csa.sc genblk1\[4\].csa.y VGND VGND VPWR VPWR _114_ sky130_fd_sc_hd__xor2_1
XFILLER_0_23_193 VGND VGND VPWR VPWR sky130_fd_sc_hd__fill_1
XFILLER_0_15_105 VGND VGND VPWR VPWR sky130_fd_sc_hd__decap_6
XFILLER_0_32_27 VGND VGND VPWR VPWR sky130_fd_sc_hd__fill_1
X_216_ _032_ _103_ VGND VGND VPWR VPWR _104_ sky130_fd_sc_hd__and2_1
XFILLER_0_7_113 VGND VGND VPWR VPWR sky130_ef_sc_hd__decap_12
XFILLER_0_7_146 VGND VGND VPWR VPWR sky130_ef_sc_hd__decap_12
XPHY_5 VGND VGND VPWR VPWR sky130_fd_sc_hd__decap_3
XFILLER_0_4_105 VGND VGND VPWR VPWR sky130_ef_sc_hd__decap_12
XFILLER_0_7_15 VGND VGND VPWR VPWR sky130_ef_sc_hd__decap_12
XFILLER_0_3_193 VGND VGND VPWR VPWR sky130_fd_sc_hd__fill_1
X_481_ clknet_3_7__leaf_clk _009_ _071_ VGND VGND VPWR VPWR genblk1\[18\].csa.sc sky130_fd_sc_hd__dfrtp_1
XFILLER_0_13_29 VGND VGND VPWR VPWR sky130_fd_sc_hd__fill_1
XFILLER_0_21_3 VGND VGND VPWR VPWR sky130_ef_sc_hd__decap_12
XFILLER_0_0_141 VGND VGND VPWR VPWR sky130_ef_sc_hd__decap_12
X_464_ clknet_3_0__leaf_clk genblk1\[9\].csa.hsum2 _054_ VGND VGND VPWR VPWR genblk1\[8\].csa.y
+ sky130_fd_sc_hd__dfrtp_1
XFILLER_0_14_83 VGND VGND VPWR VPWR sky130_fd_sc_hd__fill_1
Xclkbuf_3_2__f_clk clknet_0_clk VGND VGND VPWR VPWR clknet_3_2__leaf_clk sky130_fd_sc_hd__clkbuf_16
XFILLER_0_4_27 VGND VGND VPWR VPWR sky130_fd_sc_hd__fill_1
X_395_ _199_ VGND VGND VPWR VPWR _202_ sky130_fd_sc_hd__buf_4
XFILLER_0_30_82 VGND VGND VPWR VPWR sky130_fd_sc_hd__fill_2
XFILLER_0_10_19 VGND VGND VPWR VPWR sky130_fd_sc_hd__decap_8
XFILLER_0_27_169 VGND VGND VPWR VPWR sky130_ef_sc_hd__decap_12
X_447_ clknet_3_2__leaf_clk _011_ _037_ VGND VGND VPWR VPWR genblk1\[1\].csa.sc sky130_fd_sc_hd__dfrtp_1
X_378_ _200_ VGND VGND VPWR VPWR _037_ sky130_fd_sc_hd__inv_2
XFILLER_0_26_180 VGND VGND VPWR VPWR sky130_fd_sc_hd__decap_6
XFILLER_0_18_136 VGND VGND VPWR VPWR sky130_fd_sc_hd__decap_4
X_301_ genblk1\[17\].csa.sc genblk1\[17\].csa.y VGND VGND VPWR VPWR _156_ sky130_fd_sc_hd__xor2_1
XFILLER_0_24_117 VGND VGND VPWR VPWR sky130_fd_sc_hd__fill_1
X_232_ _113_ _111_ VGND VGND VPWR VPWR genblk1\[3\].csa.hsum2 sky130_fd_sc_hd__xnor2_1
XFILLER_0_23_161 VGND VGND VPWR VPWR sky130_fd_sc_hd__decap_6
XFILLER_0_16_29 VGND VGND VPWR VPWR sky130_fd_sc_hd__fill_2
XFILLER_0_14_183 VGND VGND VPWR VPWR sky130_fd_sc_hd__decap_8
XFILLER_0_32_39 VGND VGND VPWR VPWR sky130_fd_sc_hd__decap_6
X_215_ _097_ net26 tcmp.z VGND VGND VPWR VPWR _103_ sky130_fd_sc_hd__nand3_1
XFILLER_0_20_120 VGND VGND VPWR VPWR sky130_ef_sc_hd__decap_12
XFILLER_0_12_109 VGND VGND VPWR VPWR sky130_fd_sc_hd__decap_8
XFILLER_0_7_125 VGND VGND VPWR VPWR sky130_fd_sc_hd__fill_1
XFILLER_0_7_158 VGND VGND VPWR VPWR sky130_fd_sc_hd__decap_8
XFILLER_0_7_169 VGND VGND VPWR VPWR sky130_fd_sc_hd__decap_4
XPHY_6 VGND VGND VPWR VPWR sky130_fd_sc_hd__decap_3
XFILLER_0_4_139 VGND VGND VPWR VPWR sky130_fd_sc_hd__fill_1
XFILLER_0_7_27 VGND VGND VPWR VPWR sky130_ef_sc_hd__decap_12
XFILLER_0_6_180 VGND VGND VPWR VPWR sky130_fd_sc_hd__decap_6
XFILLER_0_3_161 VGND VGND VPWR VPWR sky130_fd_sc_hd__decap_6
X_480_ clknet_3_3__leaf_clk genblk1\[17\].csa.hsum2 _070_ VGND VGND VPWR VPWR genblk1\[16\].csa.y
+ sky130_fd_sc_hd__dfrtp_1
XFILLER_0_0_164 VGND VGND VPWR VPWR sky130_fd_sc_hd__decap_4
XFILLER_0_0_153 VGND VGND VPWR VPWR sky130_fd_sc_hd__decap_3
XFILLER_0_14_3 VGND VGND VPWR VPWR sky130_fd_sc_hd__decap_4
XFILLER_0_24_29 VGND VGND VPWR VPWR sky130_fd_sc_hd__decap_3
X_394_ _201_ VGND VGND VPWR VPWR _052_ sky130_fd_sc_hd__inv_2
X_463_ clknet_3_0__leaf_clk _030_ _053_ VGND VGND VPWR VPWR genblk1\[9\].csa.sc sky130_fd_sc_hd__dfrtp_1
X_377_ _200_ VGND VGND VPWR VPWR _036_ sky130_fd_sc_hd__inv_2
X_446_ clknet_3_6__leaf_clk _031_ _036_ VGND VGND VPWR VPWR genblk1\[30\].csa.y sky130_fd_sc_hd__dfrtp_1
XFILLER_0_3_3 VGND VGND VPWR VPWR sky130_ef_sc_hd__decap_12
XFILLER_0_32_162 VGND VGND VPWR VPWR sky130_fd_sc_hd__decap_6
X_300_ _155_ _152_ VGND VGND VPWR VPWR genblk1\[16\].csa.hsum2 sky130_fd_sc_hd__xnor2_1
X_231_ _098_ net27 VGND VGND VPWR VPWR _113_ sky130_fd_sc_hd__nand2_1
XFILLER_0_5_93 VGND VGND VPWR VPWR sky130_fd_sc_hd__decap_4
X_429_ _205_ VGND VGND VPWR VPWR _083_ sky130_fd_sc_hd__inv_2
Xinput1 rst VGND VGND VPWR VPWR net1 sky130_fd_sc_hd__clkbuf_1
XTAP_90 VGND VPWR sky130_fd_sc_hd__tapvpwrvgnd_1
XFILLER_0_32_29 VGND VGND VPWR VPWR sky130_fd_sc_hd__fill_1
X_214_ _097_ net26 tcmp.z VGND VGND VPWR VPWR _032_ sky130_fd_sc_hd__a21o_1
XFILLER_0_20_132 VGND VGND VPWR VPWR sky130_fd_sc_hd__decap_8
XFILLER_0_16_19 VGND VGND VPWR VPWR sky130_fd_sc_hd__decap_8
XFILLER_0_2_83 VGND VGND VPWR VPWR sky130_fd_sc_hd__fill_1
XFILLER_0_27_18 VGND VGND VPWR VPWR sky130_ef_sc_hd__decap_12
XPHY_7 VGND VGND VPWR VPWR sky130_fd_sc_hd__decap_3
XFILLER_0_7_39 VGND VGND VPWR VPWR sky130_ef_sc_hd__decap_12
XFILLER_0_4_29 VGND VGND VPWR VPWR sky130_ef_sc_hd__decap_12
X_393_ _201_ VGND VGND VPWR VPWR _051_ sky130_fd_sc_hd__inv_2
X_462_ clknet_3_1__leaf_clk genblk1\[8\].csa.hsum2 _052_ VGND VGND VPWR VPWR genblk1\[7\].csa.y
+ sky130_fd_sc_hd__dfrtp_1
XFILLER_0_30_51 VGND VGND VPWR VPWR sky130_fd_sc_hd__decap_8
XFILLER_0_14_85 VGND VGND VPWR VPWR sky130_ef_sc_hd__decap_12